BEGIN NEW DATA CASE
C --------------------------------------------------------
C Generated by YALUK DRAW 2.0
C Developed by: Ernesto Pérez G
C eperezg@unal.edu.co
C Universidad Nacional de Colombia
C File Created on: 12/14/2020 10:03:48 AM
C --------------------------------------------------------
C Project Name:L72_502_circuitC11.1
C   
C  dT  >< Tmax >< Xopt >< Copt > 
.5000E-7.3500E-4
  999999     100       0       0       1       0       0       0       0
/MODELS
MODELS
INPUT
M0684A  {v(N0684A)}
M0684B  {v(N0684B)}
M0684C  {v(N0684C)}
M0684N  {v(N0684N)}
M0685A  {v(N0685A)}
M0685B  {v(N0685B)}
M0685C  {v(N0685C)}
M0685N  {v(N0685N)}
M0686A  {v(N0686A)}
M0686B  {v(N0686B)}
M0686C  {v(N0686C)}
M0686N  {v(N0686N)}
M0687A  {v(N0687A)}
M0687B  {v(N0687B)}
M0687C  {v(N0687C)}
M0687N  {v(N0687N)}
M0688A  {v(N0688A)}
M0688B  {v(N0688B)}
M0688C  {v(N0688C)}
M0688N  {v(N0688N)}
M0689A  {v(N0689A)}
M0689B  {v(N0689B)}
M0689C  {v(N0689C)}
M0689N  {v(N0689N)}
M0690A  {v(N0690A)}
M0690B  {v(N0690B)}
M0690C  {v(N0690C)}
M0690N  {v(N0690N)}
M0691A  {v(N0691A)}
M0691B  {v(N0691B)}
M0691C  {v(N0691C)}
M0691N  {v(N0691N)}
M0692A  {v(N0692A)}
M0692B  {v(N0692B)}
M0692C  {v(N0692C)}
M0692N  {v(N0692N)}
M0693A  {v(N0693A)}
M0693B  {v(N0693B)}
M0693C  {v(N0693C)}
M0693N  {v(N0693N)}
M0694A  {v(N0694A)}
M0694B  {v(N0694B)}
M0694C  {v(N0694C)}
M0694N  {v(N0694N)}
M0695A  {v(N0695A)}
M0695B  {v(N0695B)}
M0695C  {v(N0695C)}
M0695N  {v(N0695N)}
M0696A  {v(N0696A)}
M0696B  {v(N0696B)}
M0696C  {v(N0696C)}
M0696N  {v(N0696N)}
M0697A  {v(N0697A)}
M0697B  {v(N0697B)}
M0697C  {v(N0697C)}
M0697N  {v(N0697N)}
M0698A  {v(N0698A)}
M0698B  {v(N0698B)}
M0698C  {v(N0698C)}
M0698N  {v(N0698N)}
M0699A  {v(N0699A)}
M0699B  {v(N0699B)}
M0699C  {v(N0699C)}
M0699N  {v(N0699N)}
M0700A  {v(N0700A)}
M0700B  {v(N0700B)}
M0700C  {v(N0700C)}
M0700N  {v(N0700N)}
M0701A  {v(N0701A)}
M0701B  {v(N0701B)}
M0701C  {v(N0701C)}
M0701N  {v(N0701N)}
M0702A  {v(N0702A)}
M0702B  {v(N0702B)}
M0702C  {v(N0702C)}
M0702N  {v(N0702N)}
M0703A  {v(N0703A)}
M0703B  {v(N0703B)}
M0703C  {v(N0703C)}
M0703N  {v(N0703N)}
M0704A  {v(N0704A)}
M0704B  {v(N0704B)}
M0704C  {v(N0704C)}
M0704N  {v(N0704N)}
M0705A  {v(N0705A)}
M0705B  {v(N0705B)}
M0705C  {v(N0705C)}
M0705N  {v(N0705N)}
M0706A  {v(N0706A)}
M0706B  {v(N0706B)}
M0706C  {v(N0706C)}
M0706N  {v(N0706N)}
M0707A  {v(N0707A)}
M0707B  {v(N0707B)}
M0707C  {v(N0707C)}
M0707N  {v(N0707N)}
M0708A  {v(N0708A)}
M0708B  {v(N0708B)}
M0708C  {v(N0708C)}
M0708N  {v(N0708N)}
M0709A  {v(N0709A)}
M0709B  {v(N0709B)}
M0709C  {v(N0709C)}
M0709N  {v(N0709N)}
M0710A  {v(N0710A)}
M0710B  {v(N0710B)}
M0710C  {v(N0710C)}
M0710N  {v(N0710N)}
M0711A  {v(N0711A)}
M0711B  {v(N0711B)}
M0711C  {v(N0711C)}
M0711N  {v(N0711N)}
M0712A  {v(N0712A)}
M0712B  {v(N0712B)}
M0712C  {v(N0712C)}
M0712N  {v(N0712N)}
M0713A  {v(N0713A)}
M0713B  {v(N0713B)}
M0713C  {v(N0713C)}
M0713N  {v(N0713N)}
M0714A  {v(N0714A)}
M0714B  {v(N0714B)}
M0714C  {v(N0714C)}
M0714N  {v(N0714N)}
M0715A  {v(N0715A)}
M0715B  {v(N0715B)}
M0715C  {v(N0715C)}
M0715N  {v(N0715N)}
M0716A  {v(N0716A)}
M0716B  {v(N0716B)}
M0716C  {v(N0716C)}
M0716N  {v(N0716N)}
M0717A  {v(N0717A)}
M0717B  {v(N0717B)}
M0717C  {v(N0717C)}
M0717N  {v(N0717N)}
M0718A  {v(N0718A)}
M0718B  {v(N0718B)}
M0718C  {v(N0718C)}
M0718N  {v(N0718N)}
M0719A  {v(N0719A)}
M0719B  {v(N0719B)}
M0719C  {v(N0719C)}
M0719N  {v(N0719N)}
M0720A  {v(N0720A)}
M0720B  {v(N0720B)}
M0720C  {v(N0720C)}
M0720N  {v(N0720N)}
M0721A  {v(N0721A)}
M0721B  {v(N0721B)}
M0721C  {v(N0721C)}
M0721N  {v(N0721N)}
M0722A  {v(N0722A)}
M0722B  {v(N0722B)}
M0722C  {v(N0722C)}
M0722N  {v(N0722N)}
M0723A  {v(N0723A)}
M0723B  {v(N0723B)}
M0723C  {v(N0723C)}
M0723N  {v(N0723N)}
M0724A  {v(N0724A)}
M0724B  {v(N0724B)}
M0724C  {v(N0724C)}
M0724N  {v(N0724N)}
M0725A  {v(N0725A)}
M0725B  {v(N0725B)}
M0725C  {v(N0725C)}
M0725N  {v(N0725N)}
M0726A  {v(N0726A)}
M0726B  {v(N0726B)}
M0726C  {v(N0726C)}
M0726N  {v(N0726N)}
M0727A  {v(N0727A)}
M0727B  {v(N0727B)}
M0727C  {v(N0727C)}
M0727N  {v(N0727N)}
M0728A  {v(N0728A)}
M0728B  {v(N0728B)}
M0728C  {v(N0728C)}
M0728N  {v(N0728N)}
M0729A  {v(N0729A)}
M0729B  {v(N0729B)}
M0729C  {v(N0729C)}
M0729N  {v(N0729N)}
M0730A  {v(N0730A)}
M0730B  {v(N0730B)}
M0730C  {v(N0730C)}
M0730N  {v(N0730N)}
M0731A  {v(N0731A)}
M0731B  {v(N0731B)}
M0731C  {v(N0731C)}
M0731N  {v(N0731N)}
M0732A  {v(N0732A)}
M0732B  {v(N0732B)}
M0732C  {v(N0732C)}
M0732N  {v(N0732N)}
M0733A  {v(N0733A)}
M0733B  {v(N0733B)}
M0733C  {v(N0733C)}
M0733N  {v(N0733N)}
M0734A  {v(N0734A)}
M0734B  {v(N0734B)}
M0734C  {v(N0734C)}
M0734N  {v(N0734N)}
M0735A  {v(N0735A)}
M0735B  {v(N0735B)}
M0735C  {v(N0735C)}
M0735N  {v(N0735N)}
M0736A  {v(N0736A)}
M0736B  {v(N0736B)}
M0736C  {v(N0736C)}
M0736N  {v(N0736N)}
M0737A  {v(N0737A)}
M0737B  {v(N0737B)}
M0737C  {v(N0737C)}
M0737N  {v(N0737N)}
M0738A  {v(N0738A)}
M0738B  {v(N0738B)}
M0738C  {v(N0738C)}
M0738N  {v(N0738N)}
M0739A  {v(N0739A)}
M0739B  {v(N0739B)}
M0739C  {v(N0739C)}
M0739N  {v(N0739N)}
M0740A  {v(N0740A)}
M0740B  {v(N0740B)}
M0740C  {v(N0740C)}
M0740N  {v(N0740N)}
M0741A  {v(N0741A)}
M0741B  {v(N0741B)}
M0741C  {v(N0741C)}
M0741N  {v(N0741N)}
M0742A  {v(N0742A)}
M0742B  {v(N0742B)}
M0742C  {v(N0742C)}
M0742N  {v(N0742N)}
M0743A  {v(N0743A)}
M0743B  {v(N0743B)}
M0743C  {v(N0743C)}
M0743N  {v(N0743N)}
M0744A  {v(N0744A)}
M0744B  {v(N0744B)}
M0744C  {v(N0744C)}
M0744N  {v(N0744N)}
M0745A  {v(N0745A)}
M0745B  {v(N0745B)}
M0745C  {v(N0745C)}
M0745N  {v(N0745N)}
M0746A  {v(N0746A)}
M0746B  {v(N0746B)}
M0746C  {v(N0746C)}
M0746N  {v(N0746N)}
M0747A  {v(N0747A)}
M0747B  {v(N0747B)}
M0747C  {v(N0747C)}
M0747N  {v(N0747N)}
M0748A  {v(N0748A)}
M0748B  {v(N0748B)}
M0748C  {v(N0748C)}
M0748N  {v(N0748N)}
M0749A  {v(N0749A)}
M0749B  {v(N0749B)}
M0749C  {v(N0749C)}
M0749N  {v(N0749N)}
M0750A  {v(N0750A)}
M0750B  {v(N0750B)}
M0750C  {v(N0750C)}
M0750N  {v(N0750N)}
M0751A  {v(N0751A)}
M0751B  {v(N0751B)}
M0751C  {v(N0751C)}
M0751N  {v(N0751N)}
M0752A  {v(N0752A)}
M0752B  {v(N0752B)}
M0752C  {v(N0752C)}
M0752N  {v(N0752N)}
M0753A  {v(N0753A)}
M0753B  {v(N0753B)}
M0753C  {v(N0753C)}
M0753N  {v(N0753N)}
M0754A  {v(N0754A)}
M0754B  {v(N0754B)}
M0754C  {v(N0754C)}
M0754N  {v(N0754N)}
M0755A  {v(N0755A)}
M0755B  {v(N0755B)}
M0755C  {v(N0755C)}
M0755N  {v(N0755N)}
M0756A  {v(N0756A)}
M0756B  {v(N0756B)}
M0756C  {v(N0756C)}
M0756N  {v(N0756N)}
M0757A  {v(N0757A)}
M0757B  {v(N0757B)}
M0757C  {v(N0757C)}
M0757N  {v(N0757N)}
M0758A  {v(N0758A)}
M0758B  {v(N0758B)}
M0758C  {v(N0758C)}
M0758N  {v(N0758N)}
M0759A  {v(N0759A)}
M0759B  {v(N0759B)}
M0759C  {v(N0759C)}
M0759N  {v(N0759N)}
M0760A  {v(N0760A)}
M0760B  {v(N0760B)}
M0760C  {v(N0760C)}
M0760N  {v(N0760N)}
M0761A  {v(N0761A)}
M0761B  {v(N0761B)}
M0761C  {v(N0761C)}
M0761N  {v(N0761N)}
M0762A  {v(N0762A)}
M0762B  {v(N0762B)}
M0762C  {v(N0762C)}
M0762N  {v(N0762N)}
M0763A  {v(N0763A)}
M0763B  {v(N0763B)}
M0763C  {v(N0763C)}
M0763N  {v(N0763N)}
M0764A  {v(N0764A)}
M0764B  {v(N0764B)}
M0764C  {v(N0764C)}
M0764N  {v(N0764N)}
M0765A  {v(N0765A)}
M0765B  {v(N0765B)}
M0765C  {v(N0765C)}
M0765N  {v(N0765N)}
M0766A  {v(N0766A)}
M0766B  {v(N0766B)}
M0766C  {v(N0766C)}
M0766N  {v(N0766N)}
M0767A  {v(N0767A)}
M0767B  {v(N0767B)}
M0767C  {v(N0767C)}
M0767N  {v(N0767N)}
M0768A  {v(N0768A)}
M0768B  {v(N0768B)}
M0768C  {v(N0768C)}
M0768N  {v(N0768N)}
M0769A  {v(N0769A)}
M0769B  {v(N0769B)}
M0769C  {v(N0769C)}
M0769N  {v(N0769N)}
M0770A  {v(N0770A)}
M0770B  {v(N0770B)}
M0770C  {v(N0770C)}
M0770N  {v(N0770N)}
M0771A  {v(N0771A)}
M0771B  {v(N0771B)}
M0771C  {v(N0771C)}
M0771N  {v(N0771N)}
M0772A  {v(N0772A)}
M0772B  {v(N0772B)}
M0772C  {v(N0772C)}
M0772N  {v(N0772N)}
M0773A  {v(N0773A)}
M0773B  {v(N0773B)}
M0773C  {v(N0773C)}
M0773N  {v(N0773N)}
M0774A  {v(N0774A)}
M0774B  {v(N0774B)}
M0774C  {v(N0774C)}
M0774N  {v(N0774N)}
M0775A  {v(N0775A)}
M0775B  {v(N0775B)}
M0775C  {v(N0775C)}
M0775N  {v(N0775N)}
M0776A  {v(N0776A)}
M0776B  {v(N0776B)}
M0776C  {v(N0776C)}
M0776N  {v(N0776N)}
M0777A  {v(N0777A)}
M0777B  {v(N0777B)}
M0777C  {v(N0777C)}
M0777N  {v(N0777N)}
M0778A  {v(N0778A)}
M0778B  {v(N0778B)}
M0778C  {v(N0778C)}
M0778N  {v(N0778N)}
M0779A  {v(N0779A)}
M0779B  {v(N0779B)}
M0779C  {v(N0779C)}
M0779N  {v(N0779N)}
M0780A  {v(N0780A)}
M0780B  {v(N0780B)}
M0780C  {v(N0780C)}
M0780N  {v(N0780N)}
M0781A  {v(N0781A)}
M0781B  {v(N0781B)}
M0781C  {v(N0781C)}
M0781N  {v(N0781N)}
M0782A  {v(N0782A)}
M0782B  {v(N0782B)}
M0782C  {v(N0782C)}
M0782N  {v(N0782N)}
M0783A  {v(N0783A)}
M0783B  {v(N0783B)}
M0783C  {v(N0783C)}
M0783N  {v(N0783N)}
M0784A  {v(N0784A)}
M0784B  {v(N0784B)}
M0784C  {v(N0784C)}
M0784N  {v(N0784N)}
M0785A  {v(N0785A)}
M0785B  {v(N0785B)}
M0785C  {v(N0785C)}
M0785N  {v(N0785N)}
M0786A  {v(N0786A)}
M0786B  {v(N0786B)}
M0786C  {v(N0786C)}
M0786N  {v(N0786N)}
M0787A  {v(N0787A)}
M0787B  {v(N0787B)}
M0787C  {v(N0787C)}
M0787N  {v(N0787N)}
M0788A  {v(N0788A)}
M0788B  {v(N0788B)}
M0788C  {v(N0788C)}
M0788N  {v(N0788N)}
M0789A  {v(N0789A)}
M0789B  {v(N0789B)}
M0789C  {v(N0789C)}
M0789N  {v(N0789N)}
M0790A  {v(N0790A)}
M0790B  {v(N0790B)}
M0790C  {v(N0790C)}
M0790N  {v(N0790N)}
M0791A  {v(N0791A)}
M0791B  {v(N0791B)}
M0791C  {v(N0791C)}
M0791N  {v(N0791N)}
M0792A  {v(N0792A)}
M0792B  {v(N0792B)}
M0792C  {v(N0792C)}
M0792N  {v(N0792N)}
M0793A  {v(N0793A)}
M0793B  {v(N0793B)}
M0793C  {v(N0793C)}
M0793N  {v(N0793N)}
M0794A  {v(N0794A)}
M0794B  {v(N0794B)}
M0794C  {v(N0794C)}
M0794N  {v(N0794N)}
M0795A  {v(N0795A)}
M0795B  {v(N0795B)}
M0795C  {v(N0795C)}
M0795N  {v(N0795N)}
M0796A  {v(N0796A)}
M0796B  {v(N0796B)}
M0796C  {v(N0796C)}
M0796N  {v(N0796N)}
M0797A  {v(N0797A)}
M0797B  {v(N0797B)}
M0797C  {v(N0797C)}
M0797N  {v(N0797N)}
M0798A  {v(N0798A)}
M0798B  {v(N0798B)}
M0798C  {v(N0798C)}
M0798N  {v(N0798N)}
M0799A  {v(N0799A)}
M0799B  {v(N0799B)}
M0799C  {v(N0799C)}
M0799N  {v(N0799N)}
M0800A  {v(N0800A)}
M0800B  {v(N0800B)}
M0800C  {v(N0800C)}
M0800N  {v(N0800N)}
M0801A  {v(N0801A)}
M0801B  {v(N0801B)}
M0801C  {v(N0801C)}
M0801N  {v(N0801N)}
M0802A  {v(N0802A)}
M0802B  {v(N0802B)}
M0802C  {v(N0802C)}
M0802N  {v(N0802N)}
M0803A  {v(N0803A)}
M0803B  {v(N0803B)}
M0803C  {v(N0803C)}
M0803N  {v(N0803N)}
M0804A  {v(N0804A)}
M0804B  {v(N0804B)}
M0804C  {v(N0804C)}
M0804N  {v(N0804N)}
M0805A  {v(N0805A)}
M0805B  {v(N0805B)}
M0805C  {v(N0805C)}
M0805N  {v(N0805N)}
M0806A  {v(N0806A)}
M0806B  {v(N0806B)}
M0806C  {v(N0806C)}
M0806N  {v(N0806N)}
M0807A  {v(N0807A)}
M0807B  {v(N0807B)}
M0807C  {v(N0807C)}
M0807N  {v(N0807N)}
M0808A  {v(N0808A)}
M0808B  {v(N0808B)}
M0808C  {v(N0808C)}
M0808N  {v(N0808N)}
M0809A  {v(N0809A)}
M0809B  {v(N0809B)}
M0809C  {v(N0809C)}
M0809N  {v(N0809N)}
M0810A  {v(N0810A)}
M0810B  {v(N0810B)}
M0810C  {v(N0810C)}
M0810N  {v(N0810N)}
M0811A  {v(N0811A)}
M0811B  {v(N0811B)}
M0811C  {v(N0811C)}
M0811N  {v(N0811N)}
M0812A  {v(N0812A)}
M0812B  {v(N0812B)}
M0812C  {v(N0812C)}
M0812N  {v(N0812N)}
M0813A  {v(N0813A)}
M0813B  {v(N0813B)}
M0813C  {v(N0813C)}
M0813N  {v(N0813N)}
M0814A  {v(N0814A)}
M0814B  {v(N0814B)}
M0814C  {v(N0814C)}
M0814N  {v(N0814N)}
M0815A  {v(N0815A)}
M0815B  {v(N0815B)}
M0815C  {v(N0815C)}
M0815N  {v(N0815N)}
M0817A  {v(N0817A)}
M0817B  {v(N0817B)}
M0817C  {v(N0817C)}
M0817N  {v(N0817N)}
M0818A  {v(N0818A)}
M0818B  {v(N0818B)}
M0818C  {v(N0818C)}
M0818N  {v(N0818N)}
M0819A  {v(N0819A)}
M0819B  {v(N0819B)}
M0819C  {v(N0819C)}
M0819N  {v(N0819N)}
M0820A  {v(N0820A)}
M0820B  {v(N0820B)}
M0820C  {v(N0820C)}
M0820N  {v(N0820N)}
M0821A  {v(N0821A)}
M0821B  {v(N0821B)}
M0821C  {v(N0821C)}
M0821N  {v(N0821N)}
M0822A  {v(N0822A)}
M0822B  {v(N0822B)}
M0822C  {v(N0822C)}
M0822N  {v(N0822N)}
M0823A  {v(N0823A)}
M0823B  {v(N0823B)}
M0823C  {v(N0823C)}
M0823N  {v(N0823N)}
M0824A  {v(N0824A)}
M0824B  {v(N0824B)}
M0824C  {v(N0824C)}
M0824N  {v(N0824N)}
M0825A  {v(N0825A)}
M0825B  {v(N0825B)}
M0825C  {v(N0825C)}
M0825N  {v(N0825N)}
M0826A  {v(N0826A)}
M0826B  {v(N0826B)}
M0826C  {v(N0826C)}
M0826N  {v(N0826N)}
M0827A  {v(N0827A)}
M0827B  {v(N0827B)}
M0827C  {v(N0827C)}
M0827N  {v(N0827N)}
M0828A  {v(N0828A)}
M0828B  {v(N0828B)}
M0828C  {v(N0828C)}
M0828N  {v(N0828N)}
M0829A  {v(N0829A)}
M0829B  {v(N0829B)}
M0829C  {v(N0829C)}
M0829N  {v(N0829N)}
M0857A  {v(N0857A)}
M0857B  {v(N0857B)}
M0857C  {v(N0857C)}
M0857N  {v(N0857N)}
M0858A  {v(N0858A)}
M0858B  {v(N0858B)}
M0858C  {v(N0858C)}
M0858N  {v(N0858N)}
M0859A  {v(N0859A)}
M0859B  {v(N0859B)}
M0859C  {v(N0859C)}
M0859N  {v(N0859N)}
M0860A  {v(N0860A)}
M0860B  {v(N0860B)}
M0860C  {v(N0860C)}
M0860N  {v(N0860N)}
M0861A  {v(N0861A)}
M0861B  {v(N0861B)}
M0861C  {v(N0861C)}
M0861N  {v(N0861N)}
M0862A  {v(N0862A)}
M0862B  {v(N0862B)}
M0862C  {v(N0862C)}
M0862N  {v(N0862N)}
M0863A  {v(N0863A)}
M0863B  {v(N0863B)}
M0863C  {v(N0863C)}
M0863N  {v(N0863N)}
M0864A  {v(N0864A)}
M0864B  {v(N0864B)}
M0864C  {v(N0864C)}
M0864N  {v(N0864N)}
M0865A  {v(N0865A)}
M0865B  {v(N0865B)}
M0865C  {v(N0865C)}
M0865N  {v(N0865N)}
M0866A  {v(N0866A)}
M0866B  {v(N0866B)}
M0866C  {v(N0866C)}
M0866N  {v(N0866N)}
M0867A  {v(N0867A)}
M0867B  {v(N0867B)}
M0867C  {v(N0867C)}
M0867N  {v(N0867N)}
M0868A  {v(N0868A)}
M0868B  {v(N0868B)}
M0868C  {v(N0868C)}
M0868N  {v(N0868N)}
M0869A  {v(N0869A)}
M0869B  {v(N0869B)}
M0869C  {v(N0869C)}
M0869N  {v(N0869N)}
M0870A  {v(N0870A)}
M0870B  {v(N0870B)}
M0870C  {v(N0870C)}
M0870N  {v(N0870N)}
M0871A  {v(N0871A)}
M0871B  {v(N0871B)}
M0871C  {v(N0871C)}
M0871N  {v(N0871N)}
M0872A  {v(N0872A)}
M0872B  {v(N0872B)}
M0872C  {v(N0872C)}
M0872N  {v(N0872N)}
M0873A  {v(N0873A)}
M0873B  {v(N0873B)}
M0873C  {v(N0873C)}
M0873N  {v(N0873N)}
M0874A  {v(N0874A)}
M0874B  {v(N0874B)}
M0874C  {v(N0874C)}
M0874N  {v(N0874N)}
M0875A  {v(N0875A)}
M0875B  {v(N0875B)}
M0875C  {v(N0875C)}
M0875N  {v(N0875N)}
M0876A  {v(N0876A)}
M0876B  {v(N0876B)}
M0876C  {v(N0876C)}
M0876N  {v(N0876N)}
M0877A  {v(N0877A)}
M0877B  {v(N0877B)}
M0877C  {v(N0877C)}
M0877N  {v(N0877N)}
M0878A  {v(N0878A)}
M0878B  {v(N0878B)}
M0878C  {v(N0878C)}
M0878N  {v(N0878N)}
M0879A  {v(N0879A)}
M0879B  {v(N0879B)}
M0879C  {v(N0879C)}
M0879N  {v(N0879N)}
M0880A  {v(N0880A)}
M0880B  {v(N0880B)}
M0880C  {v(N0880C)}
M0880N  {v(N0880N)}
M0881A  {v(N0881A)}
M0881B  {v(N0881B)}
M0881C  {v(N0881C)}
M0881N  {v(N0881N)}
M0882A  {v(N0882A)}
M0882B  {v(N0882B)}
M0882C  {v(N0882C)}
M0882N  {v(N0882N)}
M0883A  {v(N0883A)}
M0883B  {v(N0883B)}
M0883C  {v(N0883C)}
M0883N  {v(N0883N)}
M0884A  {v(N0884A)}
M0884B  {v(N0884B)}
M0884C  {v(N0884C)}
M0884N  {v(N0884N)}
M0885A  {v(N0885A)}
M0885B  {v(N0885B)}
M0885C  {v(N0885C)}
M0885N  {v(N0885N)}
M0886A  {v(N0886A)}
M0886B  {v(N0886B)}
M0886C  {v(N0886C)}
M0886N  {v(N0886N)}
M0887A  {v(N0887A)}
M0887B  {v(N0887B)}
M0887C  {v(N0887C)}
M0887N  {v(N0887N)}
M0888A  {v(N0888A)}
M0888B  {v(N0888B)}
M0888C  {v(N0888C)}
M0888N  {v(N0888N)}
M0889A  {v(N0889A)}
M0889B  {v(N0889B)}
M0889C  {v(N0889C)}
M0889N  {v(N0889N)}
M0890A  {v(N0890A)}
M0890B  {v(N0890B)}
M0890C  {v(N0890C)}
M0890N  {v(N0890N)}
M0891A  {v(N0891A)}
M0891B  {v(N0891B)}
M0891C  {v(N0891C)}
M0891N  {v(N0891N)}
M0892A  {v(N0892A)}
M0892B  {v(N0892B)}
M0892C  {v(N0892C)}
M0892N  {v(N0892N)}
M0893A  {v(N0893A)}
M0893B  {v(N0893B)}
M0893C  {v(N0893C)}
M0893N  {v(N0893N)}
M0894A  {v(N0894A)}
M0894B  {v(N0894B)}
M0894C  {v(N0894C)}
M0894N  {v(N0894N)}
M0895A  {v(N0895A)}
M0895B  {v(N0895B)}
M0895C  {v(N0895C)}
M0895N  {v(N0895N)}
M0896A  {v(N0896A)}
M0896B  {v(N0896B)}
M0896C  {v(N0896C)}
M0896N  {v(N0896N)}
M0897A  {v(N0897A)}
M0897B  {v(N0897B)}
M0897C  {v(N0897C)}
M0897N  {v(N0897N)}
M0898A  {v(N0898A)}
M0898B  {v(N0898B)}
M0898C  {v(N0898C)}
M0898N  {v(N0898N)}
M0899A  {v(N0899A)}
M0899B  {v(N0899B)}
M0899C  {v(N0899C)}
M0899N  {v(N0899N)}
M0900A  {v(N0900A)}
M0900B  {v(N0900B)}
M0900C  {v(N0900C)}
M0900N  {v(N0900N)}
M0901A  {v(N0901A)}
M0901B  {v(N0901B)}
M0901C  {v(N0901C)}
M0901N  {v(N0901N)}
M0902A  {v(N0902A)}
M0902B  {v(N0902B)}
M0902C  {v(N0902C)}
M0902N  {v(N0902N)}
M0903A  {v(N0903A)}
M0903B  {v(N0903B)}
M0903C  {v(N0903C)}
M0903N  {v(N0903N)}
M1539A  {v(N1539A)}
M1539B  {v(N1539B)}
M1539C  {v(N1539C)}
M1539N  {v(N1539N)}
M1540A  {v(N1540A)}
M1540B  {v(N1540B)}
M1540C  {v(N1540C)}
M1540N  {v(N1540N)}
M1541A  {v(N1541A)}
M1541B  {v(N1541B)}
M1541C  {v(N1541C)}
M1541N  {v(N1541N)}
M1542A  {v(N1542A)}
M1542B  {v(N1542B)}
M1542C  {v(N1542C)}
M1542N  {v(N1542N)}
M1543A  {v(N1543A)}
M1543B  {v(N1543B)}
M1543C  {v(N1543C)}
M1543N  {v(N1543N)}
M1544A  {v(N1544A)}
M1544B  {v(N1544B)}
M1544C  {v(N1544C)}
M1544N  {v(N1544N)}
M1545A  {v(N1545A)}
M1545B  {v(N1545B)}
M1545C  {v(N1545C)}
M1545N  {v(N1545N)}
M1546A  {v(N1546A)}
M1546B  {v(N1546B)}
M1546C  {v(N1546C)}
M1546N  {v(N1546N)}
M1547A  {v(N1547A)}
M1547B  {v(N1547B)}
M1547C  {v(N1547C)}
M1547N  {v(N1547N)}
M1548A  {v(N1548A)}
M1548B  {v(N1548B)}
M1548C  {v(N1548C)}
M1548N  {v(N1548N)}
M1549A  {v(N1549A)}
M1549B  {v(N1549B)}
M1549C  {v(N1549C)}
M1549N  {v(N1549N)}
M1550A  {v(N1550A)}
M1550B  {v(N1550B)}
M1550C  {v(N1550C)}
M1550N  {v(N1550N)}
M1551A  {v(N1551A)}
M1551B  {v(N1551B)}
M1551C  {v(N1551C)}
M1551N  {v(N1551N)}
M1552A  {v(N1552A)}
M1552B  {v(N1552B)}
M1552C  {v(N1552C)}
M1552N  {v(N1552N)}
M1553A  {v(N1553A)}
M1553B  {v(N1553B)}
M1553C  {v(N1553C)}
M1553N  {v(N1553N)}
M1554A  {v(N1554A)}
M1554B  {v(N1554B)}
M1554C  {v(N1554C)}
M1554N  {v(N1554N)}
M1555A  {v(N1555A)}
M1555B  {v(N1555B)}
M1555C  {v(N1555C)}
M1555N  {v(N1555N)}
M1556A  {v(N1556A)}
M1556B  {v(N1556B)}
M1556C  {v(N1556C)}
M1556N  {v(N1556N)}
M1557A  {v(N1557A)}
M1557B  {v(N1557B)}
M1557C  {v(N1557C)}
M1557N  {v(N1557N)}
M1558A  {v(N1558A)}
M1558B  {v(N1558B)}
M1558C  {v(N1558C)}
M1558N  {v(N1558N)}
M1559A  {v(N1559A)}
M1559B  {v(N1559B)}
M1559C  {v(N1559C)}
M1559N  {v(N1559N)}
M1560A  {v(N1560A)}
M1560B  {v(N1560B)}
M1560C  {v(N1560C)}
M1560N  {v(N1560N)}
M1561A  {v(N1561A)}
M1561B  {v(N1561B)}
M1561C  {v(N1561C)}
M1561N  {v(N1561N)}
M1562A  {v(N1562A)}
M1562B  {v(N1562B)}
M1562C  {v(N1562C)}
M1562N  {v(N1562N)}
M1563A  {v(N1563A)}
M1563B  {v(N1563B)}
M1563C  {v(N1563C)}
M1563N  {v(N1563N)}
M1564A  {v(N1564A)}
M1564B  {v(N1564B)}
M1564C  {v(N1564C)}
M1564N  {v(N1564N)}
M1565A  {v(N1565A)}
M1565B  {v(N1565B)}
M1565C  {v(N1565C)}
M1565N  {v(N1565N)}
M1566A  {v(N1566A)}
M1566B  {v(N1566B)}
M1566C  {v(N1566C)}
M1566N  {v(N1566N)}
M1567A  {v(N1567A)}
M1567B  {v(N1567B)}
M1567C  {v(N1567C)}
M1567N  {v(N1567N)}
M1568A  {v(N1568A)}
M1568B  {v(N1568B)}
M1568C  {v(N1568C)}
M1568N  {v(N1568N)}
M1569A  {v(N1569A)}
M1569B  {v(N1569B)}
M1569C  {v(N1569C)}
M1569N  {v(N1569N)}
M1570A  {v(N1570A)}
M1570B  {v(N1570B)}
M1570C  {v(N1570C)}
M1570N  {v(N1570N)}
M1571A  {v(N1571A)}
M1571B  {v(N1571B)}
M1571C  {v(N1571C)}
M1571N  {v(N1571N)}
M1572A  {v(N1572A)}
M1572B  {v(N1572B)}
M1572C  {v(N1572C)}
M1572N  {v(N1572N)}
M1573A  {v(N1573A)}
M1573B  {v(N1573B)}
M1573C  {v(N1573C)}
M1573N  {v(N1573N)}
M1574A  {v(N1574A)}
M1574B  {v(N1574B)}
M1574C  {v(N1574C)}
M1574N  {v(N1574N)}
M1575A  {v(N1575A)}
M1575B  {v(N1575B)}
M1575C  {v(N1575C)}
M1575N  {v(N1575N)}
M1576A  {v(N1576A)}
M1576B  {v(N1576B)}
M1576C  {v(N1576C)}
M1576N  {v(N1576N)}
M1577A  {v(N1577A)}
M1577B  {v(N1577B)}
M1577C  {v(N1577C)}
M1577N  {v(N1577N)}
M1578A  {v(N1578A)}
M1578B  {v(N1578B)}
M1578C  {v(N1578C)}
M1578N  {v(N1578N)}
M1579A  {v(N1579A)}
M1579B  {v(N1579B)}
M1579C  {v(N1579C)}
M1579N  {v(N1579N)}
M1580A  {v(N1580A)}
M1580B  {v(N1580B)}
M1580C  {v(N1580C)}
M1580N  {v(N1580N)}
M1581A  {v(N1581A)}
M1581B  {v(N1581B)}
M1581C  {v(N1581C)}
M1581N  {v(N1581N)}
M1582A  {v(N1582A)}
M1582B  {v(N1582B)}
M1582C  {v(N1582C)}
M1582N  {v(N1582N)}
M1583A  {v(N1583A)}
M1583B  {v(N1583B)}
M1583C  {v(N1583C)}
M1583N  {v(N1583N)}
M1584A  {v(N1584A)}
M1584B  {v(N1584B)}
M1584C  {v(N1584C)}
M1584N  {v(N1584N)}
M1585A  {v(N1585A)}
M1585B  {v(N1585B)}
M1585C  {v(N1585C)}
M1585N  {v(N1585N)}
M1586A  {v(N1586A)}
M1586B  {v(N1586B)}
M1586C  {v(N1586C)}
M1586N  {v(N1586N)}
M1587A  {v(N1587A)}
M1587B  {v(N1587B)}
M1587C  {v(N1587C)}
M1587N  {v(N1587N)}
M1588A  {v(N1588A)}
M1588B  {v(N1588B)}
M1588C  {v(N1588C)}
M1588N  {v(N1588N)}
M1589A  {v(N1589A)}
M1589B  {v(N1589B)}
M1589C  {v(N1589C)}
M1589N  {v(N1589N)}
M1590A  {v(N1590A)}
M1590B  {v(N1590B)}
M1590C  {v(N1590C)}
M1590N  {v(N1590N)}
M1591A  {v(N1591A)}
M1591B  {v(N1591B)}
M1591C  {v(N1591C)}
M1591N  {v(N1591N)}
M1592A  {v(N1592A)}
M1592B  {v(N1592B)}
M1592C  {v(N1592C)}
M1592N  {v(N1592N)}
M1593A  {v(N1593A)}
M1593B  {v(N1593B)}
M1593C  {v(N1593C)}
M1593N  {v(N1593N)}
M1594A  {v(N1594A)}
M1594B  {v(N1594B)}
M1594C  {v(N1594C)}
M1594N  {v(N1594N)}
M1595A  {v(N1595A)}
M1595B  {v(N1595B)}
M1595C  {v(N1595C)}
M1595N  {v(N1595N)}
M1596A  {v(N1596A)}
M1596B  {v(N1596B)}
M1596C  {v(N1596C)}
M1596N  {v(N1596N)}
M1597A  {v(N1597A)}
M1597B  {v(N1597B)}
M1597C  {v(N1597C)}
M1597N  {v(N1597N)}
M1598A  {v(N1598A)}
M1598B  {v(N1598B)}
M1598C  {v(N1598C)}
M1598N  {v(N1598N)}
M1599A  {v(N1599A)}
M1599B  {v(N1599B)}
M1599C  {v(N1599C)}
M1599N  {v(N1599N)}
M1600A  {v(N1600A)}
M1600B  {v(N1600B)}
M1600C  {v(N1600C)}
M1600N  {v(N1600N)}
M1601A  {v(N1601A)}
M1601B  {v(N1601B)}
M1601C  {v(N1601C)}
M1601N  {v(N1601N)}
M1602A  {v(N1602A)}
M1602B  {v(N1602B)}
M1602C  {v(N1602C)}
M1602N  {v(N1602N)}
M1603A  {v(N1603A)}
M1603B  {v(N1603B)}
M1603C  {v(N1603C)}
M1603N  {v(N1603N)}
M1604A  {v(N1604A)}
M1604B  {v(N1604B)}
M1604C  {v(N1604C)}
M1604N  {v(N1604N)}
M1605A  {v(N1605A)}
M1605B  {v(N1605B)}
M1605C  {v(N1605C)}
M1605N  {v(N1605N)}
M1606A  {v(N1606A)}
M1606B  {v(N1606B)}
M1606C  {v(N1606C)}
M1606N  {v(N1606N)}
M1607A  {v(N1607A)}
M1607B  {v(N1607B)}
M1607C  {v(N1607C)}
M1607N  {v(N1607N)}
M1608A  {v(N1608A)}
M1608B  {v(N1608B)}
M1608C  {v(N1608C)}
M1608N  {v(N1608N)}
M1609A  {v(N1609A)}
M1609B  {v(N1609B)}
M1609C  {v(N1609C)}
M1609N  {v(N1609N)}
M1610A  {v(N1610A)}
M1610B  {v(N1610B)}
M1610C  {v(N1610C)}
M1610N  {v(N1610N)}
M1611A  {v(N1611A)}
M1611B  {v(N1611B)}
M1611C  {v(N1611C)}
M1611N  {v(N1611N)}
M1612A  {v(N1612A)}
M1612B  {v(N1612B)}
M1612C  {v(N1612C)}
M1612N  {v(N1612N)}
M1613A  {v(N1613A)}
M1613B  {v(N1613B)}
M1613C  {v(N1613C)}
M1613N  {v(N1613N)}
M1614A  {v(N1614A)}
M1614B  {v(N1614B)}
M1614C  {v(N1614C)}
M1614N  {v(N1614N)}
M1615A  {v(N1615A)}
M1615B  {v(N1615B)}
M1615C  {v(N1615C)}
M1615N  {v(N1615N)}
M1616A  {v(N1616A)}
M1616B  {v(N1616B)}
M1616C  {v(N1616C)}
M1616N  {v(N1616N)}
M1617A  {v(N1617A)}
M1617B  {v(N1617B)}
M1617C  {v(N1617C)}
M1617N  {v(N1617N)}
M1618A  {v(N1618A)}
M1618B  {v(N1618B)}
M1618C  {v(N1618C)}
M1618N  {v(N1618N)}
M1619A  {v(N1619A)}
M1619B  {v(N1619B)}
M1619C  {v(N1619C)}
M1619N  {v(N1619N)}
M1620A  {v(N1620A)}
M1620B  {v(N1620B)}
M1620C  {v(N1620C)}
M1620N  {v(N1620N)}
M1621A  {v(N1621A)}
M1621B  {v(N1621B)}
M1621C  {v(N1621C)}
M1621N  {v(N1621N)}
M1622A  {v(N1622A)}
M1622B  {v(N1622B)}
M1622C  {v(N1622C)}
M1622N  {v(N1622N)}
M1623A  {v(N1623A)}
M1623B  {v(N1623B)}
M1623C  {v(N1623C)}
M1623N  {v(N1623N)}
M1624A  {v(N1624A)}
M1624B  {v(N1624B)}
M1624C  {v(N1624C)}
M1624N  {v(N1624N)}
M1625A  {v(N1625A)}
M1625B  {v(N1625B)}
M1625C  {v(N1625C)}
M1625N  {v(N1625N)}
M1626A  {v(N1626A)}
M1626B  {v(N1626B)}
M1626C  {v(N1626C)}
M1626N  {v(N1626N)}
M1627A  {v(N1627A)}
M1627B  {v(N1627B)}
M1627C  {v(N1627C)}
M1627N  {v(N1627N)}
M1628A  {v(N1628A)}
M1628B  {v(N1628B)}
M1628C  {v(N1628C)}
M1628N  {v(N1628N)}
M1629A  {v(N1629A)}
M1629B  {v(N1629B)}
M1629C  {v(N1629C)}
M1629N  {v(N1629N)}
M1630A  {v(N1630A)}
M1630B  {v(N1630B)}
M1630C  {v(N1630C)}
M1630N  {v(N1630N)}
M1631A  {v(N1631A)}
M1631B  {v(N1631B)}
M1631C  {v(N1631C)}
M1631N  {v(N1631N)}
M1632A  {v(N1632A)}
M1632B  {v(N1632B)}
M1632C  {v(N1632C)}
M1632N  {v(N1632N)}
M1633A  {v(N1633A)}
M1633B  {v(N1633B)}
M1633C  {v(N1633C)}
M1633N  {v(N1633N)}
M1634A  {v(N1634A)}
M1634B  {v(N1634B)}
M1634C  {v(N1634C)}
M1634N  {v(N1634N)}
M1635A  {v(N1635A)}
M1635B  {v(N1635B)}
M1635C  {v(N1635C)}
M1635N  {v(N1635N)}
M1636A  {v(N1636A)}
M1636B  {v(N1636B)}
M1636C  {v(N1636C)}
M1636N  {v(N1636N)}
M1637A  {v(N1637A)}
M1637B  {v(N1637B)}
M1637C  {v(N1637C)}
M1637N  {v(N1637N)}
M1638A  {v(N1638A)}
M1638B  {v(N1638B)}
M1638C  {v(N1638C)}
M1638N  {v(N1638N)}
M1639A  {v(N1639A)}
M1639B  {v(N1639B)}
M1639C  {v(N1639C)}
M1639N  {v(N1639N)}
M1640A  {v(N1640A)}
M1640B  {v(N1640B)}
M1640C  {v(N1640C)}
M1640N  {v(N1640N)}
M1641A  {v(N1641A)}
M1641B  {v(N1641B)}
M1641C  {v(N1641C)}
M1641N  {v(N1641N)}
M1642A  {v(N1642A)}
M1642B  {v(N1642B)}
M1642C  {v(N1642C)}
M1642N  {v(N1642N)}
M1643A  {v(N1643A)}
M1643B  {v(N1643B)}
M1643C  {v(N1643C)}
M1643N  {v(N1643N)}
M1644A  {v(N1644A)}
M1644B  {v(N1644B)}
M1644C  {v(N1644C)}
M1644N  {v(N1644N)}
M1645A  {v(N1645A)}
M1645B  {v(N1645B)}
M1645C  {v(N1645C)}
M1645N  {v(N1645N)}
M1646A  {v(N1646A)}
M1646B  {v(N1646B)}
M1646C  {v(N1646C)}
M1646N  {v(N1646N)}
M1647A  {v(N1647A)}
M1647B  {v(N1647B)}
M1647C  {v(N1647C)}
M1647N  {v(N1647N)}
M1648A  {v(N1648A)}
M1648B  {v(N1648B)}
M1648C  {v(N1648C)}
M1648N  {v(N1648N)}
M1649A  {v(N1649A)}
M1649B  {v(N1649B)}
M1649C  {v(N1649C)}
M1649N  {v(N1649N)}
M1650A  {v(N1650A)}
M1650B  {v(N1650B)}
M1650C  {v(N1650C)}
M1650N  {v(N1650N)}
M1651A  {v(N1651A)}
M1651B  {v(N1651B)}
M1651C  {v(N1651C)}
M1651N  {v(N1651N)}
M1652A  {v(N1652A)}
M1652B  {v(N1652B)}
M1652C  {v(N1652C)}
M1652N  {v(N1652N)}
M1653A  {v(N1653A)}
M1653B  {v(N1653B)}
M1653C  {v(N1653C)}
M1653N  {v(N1653N)}
M1654A  {v(N1654A)}
M1654B  {v(N1654B)}
M1654C  {v(N1654C)}
M1654N  {v(N1654N)}
M1655A  {v(N1655A)}
M1655B  {v(N1655B)}
M1655C  {v(N1655C)}
M1655N  {v(N1655N)}
M1656A  {v(N1656A)}
M1656B  {v(N1656B)}
M1656C  {v(N1656C)}
M1656N  {v(N1656N)}
M1657A  {v(N1657A)}
M1657B  {v(N1657B)}
M1657C  {v(N1657C)}
M1657N  {v(N1657N)}
M1658A  {v(N1658A)}
M1658B  {v(N1658B)}
M1658C  {v(N1658C)}
M1658N  {v(N1658N)}
M1659A  {v(N1659A)}
M1659B  {v(N1659B)}
M1659C  {v(N1659C)}
M1659N  {v(N1659N)}
M1660A  {v(N1660A)}
M1660B  {v(N1660B)}
M1660C  {v(N1660C)}
M1660N  {v(N1660N)}
M1661A  {v(N1661A)}
M1661B  {v(N1661B)}
M1661C  {v(N1661C)}
M1661N  {v(N1661N)}
M1662A  {v(N1662A)}
M1662B  {v(N1662B)}
M1662C  {v(N1662C)}
M1662N  {v(N1662N)}
M1664A  {v(N1664A)}
M1664B  {v(N1664B)}
M1664C  {v(N1664C)}
M1664N  {v(N1664N)}
M1665A  {v(N1665A)}
M1665B  {v(N1665B)}
M1665C  {v(N1665C)}
M1665N  {v(N1665N)}
M1666A  {v(N1666A)}
M1666B  {v(N1666B)}
M1666C  {v(N1666C)}
M1666N  {v(N1666N)}
M1667A  {v(N1667A)}
M1667B  {v(N1667B)}
M1667C  {v(N1667C)}
M1667N  {v(N1667N)}
M1668A  {v(N1668A)}
M1668B  {v(N1668B)}
M1668C  {v(N1668C)}
M1668N  {v(N1668N)}
M1669A  {v(N1669A)}
M1669B  {v(N1669B)}
M1669C  {v(N1669C)}
M1669N  {v(N1669N)}
M1670A  {v(N1670A)}
M1670B  {v(N1670B)}
M1670C  {v(N1670C)}
M1670N  {v(N1670N)}
M1671A  {v(N1671A)}
M1671B  {v(N1671B)}
M1671C  {v(N1671C)}
M1671N  {v(N1671N)}
M1672A  {v(N1672A)}
M1672B  {v(N1672B)}
M1672C  {v(N1672C)}
M1672N  {v(N1672N)}
M1673A  {v(N1673A)}
M1673B  {v(N1673B)}
M1673C  {v(N1673C)}
M1673N  {v(N1673N)}
M1674A  {v(N1674A)}
M1674B  {v(N1674B)}
M1674C  {v(N1674C)}
M1674N  {v(N1674N)}
M1675A  {v(N1675A)}
M1675B  {v(N1675B)}
M1675C  {v(N1675C)}
M1675N  {v(N1675N)}
M1676A  {v(N1676A)}
M1676B  {v(N1676B)}
M1676C  {v(N1676C)}
M1676N  {v(N1676N)}
M1677A  {v(N1677A)}
M1677B  {v(N1677B)}
M1677C  {v(N1677C)}
M1677N  {v(N1677N)}
M1678A  {v(N1678A)}
M1678B  {v(N1678B)}
M1678C  {v(N1678C)}
M1678N  {v(N1678N)}
M1679A  {v(N1679A)}
M1679B  {v(N1679B)}
M1679C  {v(N1679C)}
M1679N  {v(N1679N)}
M1680A  {v(N1680A)}
M1680B  {v(N1680B)}
M1680C  {v(N1680C)}
M1680N  {v(N1680N)}
M1681A  {v(N1681A)}
M1681B  {v(N1681B)}
M1681C  {v(N1681C)}
M1681N  {v(N1681N)}
M1682A  {v(N1682A)}
M1682B  {v(N1682B)}
M1682C  {v(N1682C)}
M1682N  {v(N1682N)}
M1683A  {v(N1683A)}
M1683B  {v(N1683B)}
M1683C  {v(N1683C)}
M1683N  {v(N1683N)}
M1684A  {v(N1684A)}
M1684B  {v(N1684B)}
M1684C  {v(N1684C)}
M1684N  {v(N1684N)}
M1685A  {v(N1685A)}
M1685B  {v(N1685B)}
M1685C  {v(N1685C)}
M1685N  {v(N1685N)}
M1686A  {v(N1686A)}
M1686B  {v(N1686B)}
M1686C  {v(N1686C)}
M1686N  {v(N1686N)}
M1687A  {v(N1687A)}
M1687B  {v(N1687B)}
M1687C  {v(N1687C)}
M1687N  {v(N1687N)}
M1688A  {v(N1688A)}
M1688B  {v(N1688B)}
M1688C  {v(N1688C)}
M1688N  {v(N1688N)}
M1689A  {v(N1689A)}
M1689B  {v(N1689B)}
M1689C  {v(N1689C)}
M1689N  {v(N1689N)}
M1690A  {v(N1690A)}
M1690B  {v(N1690B)}
M1690C  {v(N1690C)}
M1690N  {v(N1690N)}
M2100A  {v(N2100A)}
M2100B  {v(N2100B)}
M2100C  {v(N2100C)}
M2100N  {v(N2100N)}
M2101A  {v(N2101A)}
M2101B  {v(N2101B)}
M2101C  {v(N2101C)}
M2101N  {v(N2101N)}
OUTPUT
   L0001A
   R0001A
   L0001B
   R0001B
   L0001C
   R0001C
   L0001N
   R0001N
   L0002A
   R0002A
   L0002B
   R0002B
   L0002C
   R0002C
   L0002N
   R0002N
   L0003A
   R0003A
   L0003B
   R0003B
   L0003C
   R0003C
   L0003N
   R0003N
   L0004A
   R0004A
   L0004B
   R0004B
   L0004C
   R0004C
   L0004N
   R0004N
   L0005A
   R0005A
   L0005B
   R0005B
   L0005C
   R0005C
   L0005N
   R0005N
   L0006A
   R0006A
   L0006B
   R0006B
   L0006C
   R0006C
   L0006N
   R0006N
   L0007A
   R0007A
   L0007B
   R0007B
   L0007C
   R0007C
   L0007N
   R0007N
   L0008A
   R0008A
   L0008B
   R0008B
   L0008C
   R0008C
   L0008N
   R0008N
   L0009A
   R0009A
   L0009B
   R0009B
   L0009C
   R0009C
   L0009N
   R0009N
   L0010A
   R0010A
   L0010B
   R0010B
   L0010C
   R0010C
   L0010N
   R0010N
   L0011A
   R0011A
   L0011B
   R0011B
   L0011C
   R0011C
   L0011N
   R0011N
   L0012A
   R0012A
   L0012B
   R0012B
   L0012C
   R0012C
   L0012N
   R0012N
   L0013A
   R0013A
   L0013B
   R0013B
   L0013C
   R0013C
   L0013N
   R0013N
   L0014A
   R0014A
   L0014B
   R0014B
   L0014C
   R0014C
   L0014N
   R0014N
   L0015A
   R0015A
   L0015B
   R0015B
   L0015C
   R0015C
   L0015N
   R0015N
   L0016A
   R0016A
   L0016B
   R0016B
   L0016C
   R0016C
   L0016N
   R0016N
   L0017A
   R0017A
   L0017B
   R0017B
   L0017C
   R0017C
   L0017N
   R0017N
   L0018A
   R0018A
   L0018B
   R0018B
   L0018C
   R0018C
   L0018N
   R0018N
   L0019A
   R0019A
   L0019B
   R0019B
   L0019C
   R0019C
   L0019N
   R0019N
   L0020A
   R0020A
   L0020B
   R0020B
   L0020C
   R0020C
   L0020N
   R0020N
   L0021A
   R0021A
   L0021B
   R0021B
   L0021C
   R0021C
   L0021N
   R0021N
   L0022A
   R0022A
   L0022B
   R0022B
   L0022C
   R0022C
   L0022N
   R0022N
   L0023A
   R0023A
   L0023B
   R0023B
   L0023C
   R0023C
   L0023N
   R0023N
   L0024A
   R0024A
   L0024B
   R0024B
   L0024C
   R0024C