BEGIN NEW DATA CASE
C --------------------------------------------------------
C Generated by YALUK DRAW 2.0
C Developed by: Ernesto Pérez G
C eperezg@unal.edu.co
C Universidad Nacional de Colombia
C File Created on: 12/12/2020 10:32:08 PM
C --------------------------------------------------------
C Project Name:L72_502_circuitC4.0
C   
C  dT  >< Tmax >< Xopt >< Copt > 
.5000E-7.3500E-4
  999999     100       0       0       1       0       0       0       0
/MODELS
MODELS
INPUT
M0174A  {v(N0174A)}
M0174B  {v(N0174B)}
M0174C  {v(N0174C)}
M0174N  {v(N0174N)}
M0175A  {v(N0175A)}
M0175B  {v(N0175B)}
M0175C  {v(N0175C)}
M0175N  {v(N0175N)}
M0176A  {v(N0176A)}
M0176B  {v(N0176B)}
M0176C  {v(N0176C)}
M0176N  {v(N0176N)}
M0177A  {v(N0177A)}
M0177B  {v(N0177B)}
M0177C  {v(N0177C)}
M0177N  {v(N0177N)}
M0178A  {v(N0178A)}
M0178B  {v(N0178B)}
M0178C  {v(N0178C)}
M0178N  {v(N0178N)}
M0179A  {v(N0179A)}
M0179B  {v(N0179B)}
M0179C  {v(N0179C)}
M0179N  {v(N0179N)}
M0180A  {v(N0180A)}
M0180B  {v(N0180B)}
M0180C  {v(N0180C)}
M0180N  {v(N0180N)}
M0181A  {v(N0181A)}
M0181B  {v(N0181B)}
M0181C  {v(N0181C)}
M0181N  {v(N0181N)}
M0182A  {v(N0182A)}
M0182B  {v(N0182B)}
M0182C  {v(N0182C)}
M0182N  {v(N0182N)}
M0183A  {v(N0183A)}
M0183B  {v(N0183B)}
M0183C  {v(N0183C)}
M0183N  {v(N0183N)}
M0184A  {v(N0184A)}
M0184B  {v(N0184B)}
M0184C  {v(N0184C)}
M0184N  {v(N0184N)}
M0185A  {v(N0185A)}
M0185B  {v(N0185B)}
M0185C  {v(N0185C)}
M0185N  {v(N0185N)}
M0186A  {v(N0186A)}
M0186B  {v(N0186B)}
M0186C  {v(N0186C)}
M0186N  {v(N0186N)}
M0187A  {v(N0187A)}
M0187B  {v(N0187B)}
M0187C  {v(N0187C)}
M0187N  {v(N0187N)}
M0190A  {v(N0190A)}
M0190B  {v(N0190B)}
M0190C  {v(N0190C)}
M0190N  {v(N0190N)}
M0191A  {v(N0191A)}
M0191B  {v(N0191B)}
M0191C  {v(N0191C)}
M0191N  {v(N0191N)}
M0192A  {v(N0192A)}
M0192B  {v(N0192B)}
M0192C  {v(N0192C)}
M0192N  {v(N0192N)}
M0193A  {v(N0193A)}
M0193B  {v(N0193B)}
M0193C  {v(N0193C)}
M0193N  {v(N0193N)}
M0194A  {v(N0194A)}
M0194B  {v(N0194B)}
M0194C  {v(N0194C)}
M0194N  {v(N0194N)}
M0195A  {v(N0195A)}
M0195B  {v(N0195B)}
M0195C  {v(N0195C)}
M0195N  {v(N0195N)}
M0196A  {v(N0196A)}
M0196B  {v(N0196B)}
M0196C  {v(N0196C)}
M0196N  {v(N0196N)}
M0197A  {v(N0197A)}
M0197B  {v(N0197B)}
M0197C  {v(N0197C)}
M0197N  {v(N0197N)}
M0198A  {v(N0198A)}
M0198B  {v(N0198B)}
M0198C  {v(N0198C)}
M0198N  {v(N0198N)}
M0199A  {v(N0199A)}
M0199B  {v(N0199B)}
M0199C  {v(N0199C)}
M0199N  {v(N0199N)}
M0200A  {v(N0200A)}
M0200B  {v(N0200B)}
M0200C  {v(N0200C)}
M0200N  {v(N0200N)}
M0201A  {v(N0201A)}
M0201B  {v(N0201B)}
M0201C  {v(N0201C)}
M0201N  {v(N0201N)}
M0202A  {v(N0202A)}
M0202B  {v(N0202B)}
M0202C  {v(N0202C)}
M0202N  {v(N0202N)}
M0203A  {v(N0203A)}
M0203B  {v(N0203B)}
M0203C  {v(N0203C)}
M0203N  {v(N0203N)}
M0204A  {v(N0204A)}
M0204B  {v(N0204B)}
M0204C  {v(N0204C)}
M0204N  {v(N0204N)}
M0205A  {v(N0205A)}
M0205B  {v(N0205B)}
M0205C  {v(N0205C)}
M0205N  {v(N0205N)}
M0206A  {v(N0206A)}
M0206B  {v(N0206B)}
M0206C  {v(N0206C)}
M0206N  {v(N0206N)}
M0207A  {v(N0207A)}
M0207B  {v(N0207B)}
M0207C  {v(N0207C)}
M0207N  {v(N0207N)}
M0208A  {v(N0208A)}
M0208B  {v(N0208B)}
M0208C  {v(N0208C)}
M0208N  {v(N0208N)}
M0209A  {v(N0209A)}
M0209B  {v(N0209B)}
M0209C  {v(N0209C)}
M0209N  {v(N0209N)}
M0210A  {v(N0210A)}
M0210B  {v(N0210B)}
M0210C  {v(N0210C)}
M0210N  {v(N0210N)}
M0211A  {v(N0211A)}
M0211B  {v(N0211B)}
M0211C  {v(N0211C)}
M0211N  {v(N0211N)}
M0212A  {v(N0212A)}
M0212B  {v(N0212B)}
M0212C  {v(N0212C)}
M0212N  {v(N0212N)}
M0213A  {v(N0213A)}
M0213B  {v(N0213B)}
M0213C  {v(N0213C)}
M0213N  {v(N0213N)}
M0214A  {v(N0214A)}
M0214B  {v(N0214B)}
M0214C  {v(N0214C)}
M0214N  {v(N0214N)}
M0215A  {v(N0215A)}
M0215B  {v(N0215B)}
M0215C  {v(N0215C)}
M0215N  {v(N0215N)}
M0216A  {v(N0216A)}
M0216B  {v(N0216B)}
M0216C  {v(N0216C)}
M0216N  {v(N0216N)}
M0217A  {v(N0217A)}
M0217B  {v(N0217B)}
M0217C  {v(N0217C)}
M0217N  {v(N0217N)}
M0218A  {v(N0218A)}
M0218B  {v(N0218B)}
M0218C  {v(N0218C)}
M0218N  {v(N0218N)}
M0219A  {v(N0219A)}
M0219B  {v(N0219B)}
M0219C  {v(N0219C)}
M0219N  {v(N0219N)}
M0220A  {v(N0220A)}
M0220B  {v(N0220B)}
M0220C  {v(N0220C)}
M0220N  {v(N0220N)}
M0221A  {v(N0221A)}
M0221B  {v(N0221B)}
M0221C  {v(N0221C)}
M0221N  {v(N0221N)}
M0222A  {v(N0222A)}
M0222B  {v(N0222B)}
M0222C  {v(N0222C)}
M0222N  {v(N0222N)}
M0223A  {v(N0223A)}
M0223B  {v(N0223B)}
M0223C  {v(N0223C)}
M0223N  {v(N0223N)}
M0224A  {v(N0224A)}
M0224B  {v(N0224B)}
M0224C  {v(N0224C)}
M0224N  {v(N0224N)}
M0225A  {v(N0225A)}
M0225B  {v(N0225B)}
M0225C  {v(N0225C)}
M0225N  {v(N0225N)}
M0226A  {v(N0226A)}
M0226B  {v(N0226B)}
M0226C  {v(N0226C)}
M0226N  {v(N0226N)}
M0227A  {v(N0227A)}
M0227B  {v(N0227B)}
M0227C  {v(N0227C)}
M0227N  {v(N0227N)}
M0228A  {v(N0228A)}
M0228B  {v(N0228B)}
M0228C  {v(N0228C)}
M0228N  {v(N0228N)}
M0229A  {v(N0229A)}
M0229B  {v(N0229B)}
M0229C  {v(N0229C)}
M0229N  {v(N0229N)}
M0230A  {v(N0230A)}
M0230B  {v(N0230B)}
M0230C  {v(N0230C)}
M0230N  {v(N0230N)}
M0231A  {v(N0231A)}
M0231B  {v(N0231B)}
M0231C  {v(N0231C)}
M0231N  {v(N0231N)}
M0232A  {v(N0232A)}
M0232B  {v(N0232B)}
M0232C  {v(N0232C)}
M0232N  {v(N0232N)}
M0233A  {v(N0233A)}
M0233B  {v(N0233B)}
M0233C  {v(N0233C)}
M0233N  {v(N0233N)}
M0234A  {v(N0234A)}
M0234B  {v(N0234B)}
M0234C  {v(N0234C)}
M0234N  {v(N0234N)}
M0235A  {v(N0235A)}
M0235B  {v(N0235B)}
M0235C  {v(N0235C)}
M0235N  {v(N0235N)}
M0236A  {v(N0236A)}
M0236B  {v(N0236B)}
M0236C  {v(N0236C)}
M0236N  {v(N0236N)}
M0237A  {v(N0237A)}
M0237B  {v(N0237B)}
M0237C  {v(N0237C)}
M0237N  {v(N0237N)}
M0238A  {v(N0238A)}
M0238B  {v(N0238B)}
M0238C  {v(N0238C)}
M0238N  {v(N0238N)}
M0239A  {v(N0239A)}
M0239B  {v(N0239B)}
M0239C  {v(N0239C)}
M0239N  {v(N0239N)}
M0240A  {v(N0240A)}
M0240B  {v(N0240B)}
M0240C  {v(N0240C)}
M0240N  {v(N0240N)}
M0241A  {v(N0241A)}
M0241B  {v(N0241B)}
M0241C  {v(N0241C)}
M0241N  {v(N0241N)}
M0242A  {v(N0242A)}
M0242B  {v(N0242B)}
M0242C  {v(N0242C)}
M0242N  {v(N0242N)}
M0243A  {v(N0243A)}
M0243B  {v(N0243B)}
M0243C  {v(N0243C)}
M0243N  {v(N0243N)}
M0244A  {v(N0244A)}
M0244B  {v(N0244B)}
M0244C  {v(N0244C)}
M0244N  {v(N0244N)}
M0245A  {v(N0245A)}
M0245B  {v(N0245B)}
M0245C  {v(N0245C)}
M0245N  {v(N0245N)}
M0246A  {v(N0246A)}
M0246B  {v(N0246B)}
M0246C  {v(N0246C)}
M0246N  {v(N0246N)}
M0247A  {v(N0247A)}
M0247B  {v(N0247B)}
M0247C  {v(N0247C)}
M0247N  {v(N0247N)}
M0248A  {v(N0248A)}
M0248B  {v(N0248B)}
M0248C  {v(N0248C)}
M0248N  {v(N0248N)}
M0249A  {v(N0249A)}
M0249B  {v(N0249B)}
M0249C  {v(N0249C)}
M0249N  {v(N0249N)}
M0250A  {v(N0250A)}
M0250B  {v(N0250B)}
M0250C  {v(N0250C)}
M0250N  {v(N0250N)}
M0251A  {v(N0251A)}
M0251B  {v(N0251B)}
M0251C  {v(N0251C)}
M0251N  {v(N0251N)}
M0252A  {v(N0252A)}
M0252B  {v(N0252B)}
M0252C  {v(N0252C)}
M0252N  {v(N0252N)}
M0253A  {v(N0253A)}
M0253B  {v(N0253B)}
M0253C  {v(N0253C)}
M0253N  {v(N0253N)}
M0254A  {v(N0254A)}
M0254B  {v(N0254B)}
M0254C  {v(N0254C)}
M0254N  {v(N0254N)}
M0255A  {v(N0255A)}
M0255B  {v(N0255B)}
M0255C  {v(N0255C)}
M0255N  {v(N0255N)}
M0256A  {v(N0256A)}
M0256B  {v(N0256B)}
M0256C  {v(N0256C)}
M0256N  {v(N0256N)}
M0257A  {v(N0257A)}
M0257B  {v(N0257B)}
M0257C  {v(N0257C)}
M0257N  {v(N0257N)}
M0258A  {v(N0258A)}
M0258B  {v(N0258B)}
M0258C  {v(N0258C)}
M0258N  {v(N0258N)}
M0259A  {v(N0259A)}
M0259B  {v(N0259B)}
M0259C  {v(N0259C)}
M0259N  {v(N0259N)}
M0260A  {v(N0260A)}
M0260B  {v(N0260B)}
M0260C  {v(N0260C)}
M0260N  {v(N0260N)}
M0261A  {v(N0261A)}
M0261B  {v(N0261B)}
M0261C  {v(N0261C)}
M0261N  {v(N0261N)}
M0262A  {v(N0262A)}
M0262B  {v(N0262B)}
M0262C  {v(N0262C)}
M0262N  {v(N0262N)}
M0263A  {v(N0263A)}
M0263B  {v(N0263B)}
M0263C  {v(N0263C)}
M0263N  {v(N0263N)}
M0264A  {v(N0264A)}
M0264B  {v(N0264B)}
M0264C  {v(N0264C)}
M0264N  {v(N0264N)}
M0265A  {v(N0265A)}
M0265B  {v(N0265B)}
M0265C  {v(N0265C)}
M0265N  {v(N0265N)}
M0266A  {v(N0266A)}
M0266B  {v(N0266B)}
M0266C  {v(N0266C)}
M0266N  {v(N0266N)}
M0267A  {v(N0267A)}
M0267B  {v(N0267B)}
M0267C  {v(N0267C)}
M0267N  {v(N0267N)}
M0268A  {v(N0268A)}
M0268B  {v(N0268B)}
M0268C  {v(N0268C)}
M0268N  {v(N0268N)}
M0269A  {v(N0269A)}
M0269B  {v(N0269B)}
M0269C  {v(N0269C)}
M0269N  {v(N0269N)}
M0270A  {v(N0270A)}
M0270B  {v(N0270B)}
M0270C  {v(N0270C)}
M0270N  {v(N0270N)}
M0271A  {v(N0271A)}
M0271B  {v(N0271B)}
M0271C  {v(N0271C)}
M0271N  {v(N0271N)}
M0272A  {v(N0272A)}
M0272B  {v(N0272B)}
M0272C  {v(N0272C)}
M0272N  {v(N0272N)}
M0273A  {v(N0273A)}
M0273B  {v(N0273B)}
M0273C  {v(N0273C)}
M0273N  {v(N0273N)}
M0274A  {v(N0274A)}
M0274B  {v(N0274B)}
M0274C  {v(N0274C)}
M0274N  {v(N0274N)}
M0275A  {v(N0275A)}
M0275B  {v(N0275B)}
M0275C  {v(N0275C)}
M0275N  {v(N0275N)}
M0276A  {v(N0276A)}
M0276B  {v(N0276B)}
M0276C  {v(N0276C)}
M0276N  {v(N0276N)}
M0277A  {v(N0277A)}
M0277B  {v(N0277B)}
M0277C  {v(N0277C)}
M0277N  {v(N0277N)}
M0278A  {v(N0278A)}
M0278B  {v(N0278B)}
M0278C  {v(N0278C)}
M0278N  {v(N0278N)}
M0279A  {v(N0279A)}
M0279B  {v(N0279B)}
M0279C  {v(N0279C)}
M0279N  {v(N0279N)}
M0280A  {v(N0280A)}
M0280B  {v(N0280B)}
M0280C  {v(N0280C)}
M0280N  {v(N0280N)}
M0281A  {v(N0281A)}
M0281B  {v(N0281B)}
M0281C  {v(N0281C)}
M0281N  {v(N0281N)}
M0282A  {v(N0282A)}
M0282B  {v(N0282B)}
M0282C  {v(N0282C)}
M0282N  {v(N0282N)}
M0283A  {v(N0283A)}
M0283B  {v(N0283B)}
M0283C  {v(N0283C)}
M0283N  {v(N0283N)}
M0284A  {v(N0284A)}
M0284B  {v(N0284B)}
M0284C  {v(N0284C)}
M0284N  {v(N0284N)}
M0285A  {v(N0285A)}
M0285B  {v(N0285B)}
M0285C  {v(N0285C)}
M0285N  {v(N0285N)}
M0286A  {v(N0286A)}
M0286B  {v(N0286B)}
M0286C  {v(N0286C)}
M0286N  {v(N0286N)}
M0287A  {v(N0287A)}
M0287B  {v(N0287B)}
M0287C  {v(N0287C)}
M0287N  {v(N0287N)}
M0288A  {v(N0288A)}
M0288B  {v(N0288B)}
M0288C  {v(N0288C)}
M0288N  {v(N0288N)}
M0289A  {v(N0289A)}
M0289B  {v(N0289B)}
M0289C  {v(N0289C)}
M0289N  {v(N0289N)}
M0290A  {v(N0290A)}
M0290B  {v(N0290B)}
M0290C  {v(N0290C)}
M0290N  {v(N0290N)}
M0291A  {v(N0291A)}
M0291B  {v(N0291B)}
M0291C  {v(N0291C)}
M0291N  {v(N0291N)}
M0292A  {v(N0292A)}
M0292B  {v(N0292B)}
M0292C  {v(N0292C)}
M0292N  {v(N0292N)}
M0293A  {v(N0293A)}
M0293B  {v(N0293B)}
M0293C  {v(N0293C)}
M0293N  {v(N0293N)}
M0294A  {v(N0294A)}
M0294B  {v(N0294B)}
M0294C  {v(N0294C)}
M0294N  {v(N0294N)}
M0295A  {v(N0295A)}
M0295B  {v(N0295B)}
M0295C  {v(N0295C)}
M0295N  {v(N0295N)}
M0296A  {v(N0296A)}
M0296B  {v(N0296B)}
M0296C  {v(N0296C)}
M0296N  {v(N0296N)}
M0297A  {v(N0297A)}
M0297B  {v(N0297B)}
M0297C  {v(N0297C)}
M0297N  {v(N0297N)}
M0298A  {v(N0298A)}
M0298B  {v(N0298B)}
M0298C  {v(N0298C)}
M0298N  {v(N0298N)}
M0299A  {v(N0299A)}
M0299B  {v(N0299B)}
M0299C  {v(N0299C)}
M0299N  {v(N0299N)}
M0300A  {v(N0300A)}
M0300B  {v(N0300B)}
M0300C  {v(N0300C)}
M0300N  {v(N0300N)}
M0301A  {v(N0301A)}
M0301B  {v(N0301B)}
M0301C  {v(N0301C)}
M0301N  {v(N0301N)}
M0302A  {v(N0302A)}
M0302B  {v(N0302B)}
M0302C  {v(N0302C)}
M0302N  {v(N0302N)}
M0303A  {v(N0303A)}
M0303B  {v(N0303B)}
M0303C  {v(N0303C)}
M0303N  {v(N0303N)}
M0304A  {v(N0304A)}
M0304B  {v(N0304B)}
M0304C  {v(N0304C)}
M0304N  {v(N0304N)}
M0305A  {v(N0305A)}
M0305B  {v(N0305B)}
M0305C  {v(N0305C)}
M0305N  {v(N0305N)}
M0306A  {v(N0306A)}
M0306B  {v(N0306B)}
M0306C  {v(N0306C)}
M0306N  {v(N0306N)}
M0307A  {v(N0307A)}
M0307B  {v(N0307B)}
M0307C  {v(N0307C)}
M0307N  {v(N0307N)}
M0308A  {v(N0308A)}
M0308B  {v(N0308B)}
M0308C  {v(N0308C)}
M0308N  {v(N0308N)}
M0309A  {v(N0309A)}
M0309B  {v(N0309B)}
M0309C  {v(N0309C)}
M0309N  {v(N0309N)}
M0310A  {v(N0310A)}
M0310B  {v(N0310B)}
M0310C  {v(N0310C)}
M0310N  {v(N0310N)}
M0311A  {v(N0311A)}
M0311B  {v(N0311B)}
M0311C  {v(N0311C)}
M0311N  {v(N0311N)}
M0312A  {v(N0312A)}
M0312B  {v(N0312B)}
M0312C  {v(N0312C)}
M0312N  {v(N0312N)}
M0313A  {v(N0313A)}
M0313B  {v(N0313B)}
M0313C  {v(N0313C)}
M0313N  {v(N0313N)}
M0314A  {v(N0314A)}
M0314B  {v(N0314B)}
M0314C  {v(N0314C)}
M0314N  {v(N0314N)}
M0315A  {v(N0315A)}
M0315B  {v(N0315B)}
M0315C  {v(N0315C)}
M0315N  {v(N0315N)}
M0316A  {v(N0316A)}
M0316B  {v(N0316B)}
M0316C  {v(N0316C)}
M0316N  {v(N0316N)}
M0317A  {v(N0317A)}
M0317B  {v(N0317B)}
M0317C  {v(N0317C)}
M0317N  {v(N0317N)}
M0318A  {v(N0318A)}
M0318B  {v(N0318B)}
M0318C  {v(N0318C)}
M0318N  {v(N0318N)}
M0319A  {v(N0319A)}
M0319B  {v(N0319B)}
M0319C  {v(N0319C)}
M0319N  {v(N0319N)}
M0320A  {v(N0320A)}
M0320B  {v(N0320B)}
M0320C  {v(N0320C)}
M0320N  {v(N0320N)}
M0321A  {v(N0321A)}
M0321B  {v(N0321B)}
M0321C  {v(N0321C)}
M0321N  {v(N0321N)}
M0322A  {v(N0322A)}
M0322B  {v(N0322B)}
M0322C  {v(N0322C)}
M0322N  {v(N0322N)}
M0323A  {v(N0323A)}
M0323B  {v(N0323B)}
M0323C  {v(N0323C)}
M0323N  {v(N0323N)}
M0324A  {v(N0324A)}
M0324B  {v(N0324B)}
M0324C  {v(N0324C)}
M0324N  {v(N0324N)}
M0325A  {v(N0325A)}
M0325B  {v(N0325B)}
M0325C  {v(N0325C)}
M0325N  {v(N0325N)}
M0326A  {v(N0326A)}
M0326B  {v(N0326B)}
M0326C  {v(N0326C)}
M0326N  {v(N0326N)}
M0327A  {v(N0327A)}
M0327B  {v(N0327B)}
M0327C  {v(N0327C)}
M0327N  {v(N0327N)}
M0396A  {v(N0396A)}
M0396B  {v(N0396B)}
M0396C  {v(N0396C)}
M0396N  {v(N0396N)}
M0397A  {v(N0397A)}
M0397B  {v(N0397B)}
M0397C  {v(N0397C)}
M0397N  {v(N0397N)}
M0398A  {v(N0398A)}
M0398B  {v(N0398B)}
M0398C  {v(N0398C)}
M0398N  {v(N0398N)}
M0399A  {v(N0399A)}
M0399B  {v(N0399B)}
M0399C  {v(N0399C)}
M0399N  {v(N0399N)}
M0400A  {v(N0400A)}
M0400B  {v(N0400B)}
M0400C  {v(N0400C)}
M0400N  {v(N0400N)}
M0401A  {v(N0401A)}
M0401B  {v(N0401B)}
M0401C  {v(N0401C)}
M0401N  {v(N0401N)}
M0402A  {v(N0402A)}
M0402B  {v(N0402B)}
M0402C  {v(N0402C)}
M0402N  {v(N0402N)}
M0403A  {v(N0403A)}
M0403B  {v(N0403B)}
M0403C  {v(N0403C)}
M0403N  {v(N0403N)}
M0404A  {v(N0404A)}
M0404B  {v(N0404B)}
M0404C  {v(N0404C)}
M0404N  {v(N0404N)}
M0405A  {v(N0405A)}
M0405B  {v(N0405B)}
M0405C  {v(N0405C)}
M0405N  {v(N0405N)}
M0406A  {v(N0406A)}
M0406B  {v(N0406B)}
M0406C  {v(N0406C)}
M0406N  {v(N0406N)}
M0409A  {v(N0409A)}
M0409B  {v(N0409B)}
M0409C  {v(N0409C)}
M0409N  {v(N0409N)}
M0410A  {v(N0410A)}
M0410B  {v(N0410B)}
M0410C  {v(N0410C)}
M0410N  {v(N0410N)}
M0411A  {v(N0411A)}
M0411B  {v(N0411B)}
M0411C  {v(N0411C)}
M0411N  {v(N0411N)}
M0412A  {v(N0412A)}
M0412B  {v(N0412B)}
M0412C  {v(N0412C)}
M0412N  {v(N0412N)}
M0413A  {v(N0413A)}
M0413B  {v(N0413B)}
M0413C  {v(N0413C)}
M0413N  {v(N0413N)}
M0414A  {v(N0414A)}
M0414B  {v(N0414B)}
M0414C  {v(N0414C)}
M0414N  {v(N0414N)}
M0415A  {v(N0415A)}
M0415B  {v(N0415B)}
M0415C  {v(N0415C)}
M0415N  {v(N0415N)}
M0416A  {v(N0416A)}
M0416B  {v(N0416B)}
M0416C  {v(N0416C)}
M0416N  {v(N0416N)}
M0417A  {v(N0417A)}
M0417B  {v(N0417B)}
M0417C  {v(N0417C)}
M0417N  {v(N0417N)}
M0418A  {v(N0418A)}
M0418B  {v(N0418B)}
M0418C  {v(N0418C)}
M0418N  {v(N0418N)}
M0419A  {v(N0419A)}
M0419B  {v(N0419B)}
M0419C  {v(N0419C)}
M0419N  {v(N0419N)}
M0420A  {v(N0420A)}
M0420B  {v(N0420B)}
M0420C  {v(N0420C)}
M0420N  {v(N0420N)}
M0421A  {v(N0421A)}
M0421B  {v(N0421B)}
M0421C  {v(N0421C)}
M0421N  {v(N0421N)}
M0422A  {v(N0422A)}
M0422B  {v(N0422B)}
M0422C  {v(N0422C)}
M0422N  {v(N0422N)}
M0423A  {v(N0423A)}
M0423B  {v(N0423B)}
M0423C  {v(N0423C)}
M0423N  {v(N0423N)}
M0424A  {v(N0424A)}
M0424B  {v(N0424B)}
M0424C  {v(N0424C)}
M0424N  {v(N0424N)}
M0425A  {v(N0425A)}
M0425B  {v(N0425B)}
M0425C  {v(N0425C)}
M0425N  {v(N0425N)}
M0426A  {v(N0426A)}
M0426B  {v(N0426B)}
M0426C  {v(N0426C)}
M0426N  {v(N0426N)}
M0427A  {v(N0427A)}
M0427B  {v(N0427B)}
M0427C  {v(N0427C)}
M0427N  {v(N0427N)}
M0428A  {v(N0428A)}
M0428B  {v(N0428B)}
M0428C  {v(N0428C)}
M0428N  {v(N0428N)}
M0429A  {v(N0429A)}
M0429B  {v(N0429B)}
M0429C  {v(N0429C)}
M0429N  {v(N0429N)}
M0430A  {v(N0430A)}
M0430B  {v(N0430B)}
M0430C  {v(N0430C)}
M0430N  {v(N0430N)}
M0431A  {v(N0431A)}
M0431B  {v(N0431B)}
M0431C  {v(N0431C)}
M0431N  {v(N0431N)}
M0432A  {v(N0432A)}
M0432B  {v(N0432B)}
M0432C  {v(N0432C)}
M0432N  {v(N0432N)}
M0433A  {v(N0433A)}
M0433B  {v(N0433B)}
M0433C  {v(N0433C)}
M0433N  {v(N0433N)}
M0434A  {v(N0434A)}
M0434B  {v(N0434B)}
M0434C  {v(N0434C)}
M0434N  {v(N0434N)}
M0435A  {v(N0435A)}
M0435B  {v(N0435B)}
M0435C  {v(N0435C)}
M0435N  {v(N0435N)}
M0436A  {v(N0436A)}
M0436B  {v(N0436B)}
M0436C  {v(N0436C)}
M0436N  {v(N0436N)}
M0437A  {v(N0437A)}
M0437B  {v(N0437B)}
M0437C  {v(N0437C)}
M0437N  {v(N0437N)}
M0438A  {v(N0438A)}
M0438B  {v(N0438B)}
M0438C  {v(N0438C)}
M0438N  {v(N0438N)}
M0439A  {v(N0439A)}
M0439B  {v(N0439B)}
M0439C  {v(N0439C)}
M0439N  {v(N0439N)}
M0440A  {v(N0440A)}
M0440B  {v(N0440B)}
M0440C  {v(N0440C)}
M0440N  {v(N0440N)}
M0441A  {v(N0441A)}
M0441B  {v(N0441B)}
M0441C  {v(N0441C)}
M0441N  {v(N0441N)}
M0442A  {v(N0442A)}
M0442B  {v(N0442B)}
M0442C  {v(N0442C)}
M0442N  {v(N0442N)}
M0443A  {v(N0443A)}
M0443B  {v(N0443B)}
M0443C  {v(N0443C)}
M0443N  {v(N0443N)}
M0444A  {v(N0444A)}
M0444B  {v(N0444B)}
M0444C  {v(N0444C)}
M0444N  {v(N0444N)}
M0445A  {v(N0445A)}
M0445B  {v(N0445B)}
M0445C  {v(N0445C)}
M0445N  {v(N0445N)}
M0446A  {v(N0446A)}
M0446B  {v(N0446B)}
M0446C  {v(N0446C)}
M0446N  {v(N0446N)}
M0447A  {v(N0447A)}
M0447B  {v(N0447B)}
M0447C  {v(N0447C)}
M0447N  {v(N0447N)}
M0448A  {v(N0448A)}
M0448B  {v(N0448B)}
M0448C  {v(N0448C)}
M0448N  {v(N0448N)}
M0449A  {v(N0449A)}
M0449B  {v(N0449B)}
M0449C  {v(N0449C)}
M0449N  {v(N0449N)}
M0450A  {v(N0450A)}
M0450B  {v(N0450B)}
M0450C  {v(N0450C)}
M0450N  {v(N0450N)}
M0451A  {v(N0451A)}
M0451B  {v(N0451B)}
M0451C  {v(N0451C)}
M0451N  {v(N0451N)}
M0452A  {v(N0452A)}
M0452B  {v(N0452B)}
M0452C  {v(N0452C)}
M0452N  {v(N0452N)}
M0453A  {v(N0453A)}
M0453B  {v(N0453B)}
M0453C  {v(N0453C)}
M0453N  {v(N0453N)}
M0454A  {v(N0454A)}
M0454B  {v(N0454B)}
M0454C  {v(N0454C)}
M0454N  {v(N0454N)}
M0455A  {v(N0455A)}
M0455B  {v(N0455B)}
M0455C  {v(N0455C)}
M0455N  {v(N0455N)}
M0456A  {v(N0456A)}
M0456B  {v(N0456B)}
M0456C  {v(N0456C)}
M0456N  {v(N0456N)}
M0457A  {v(N0457A)}
M0457B  {v(N0457B)}
M0457C  {v(N0457C)}
M0457N  {v(N0457N)}
M0458A  {v(N0458A)}
M0458B  {v(N0458B)}
M0458C  {v(N0458C)}
M0458N  {v(N0458N)}
M0459A  {v(N0459A)}
M0459B  {v(N0459B)}
M0459C  {v(N0459C)}
M0459N  {v(N0459N)}
M0460A  {v(N0460A)}
M0460B  {v(N0460B)}
M0460C  {v(N0460C)}
M0460N  {v(N0460N)}
M0461A  {v(N0461A)}
M0461B  {v(N0461B)}
M0461C  {v(N0461C)}
M0461N  {v(N0461N)}
M0462A  {v(N0462A)}
M0462B  {v(N0462B)}
M0462C  {v(N0462C)}
M0462N  {v(N0462N)}
M0463A  {v(N0463A)}
M0463B  {v(N0463B)}
M0463C  {v(N0463C)}
M0463N  {v(N0463N)}
M0464A  {v(N0464A)}
M0464B  {v(N0464B)}
M0464C  {v(N0464C)}
M0464N  {v(N0464N)}
M0465A  {v(N0465A)}
M0465B  {v(N0465B)}
M0465C  {v(N0465C)}
M0465N  {v(N0465N)}
M0466A  {v(N0466A)}
M0466B  {v(N0466B)}
M0466C  {v(N0466C)}
M0466N  {v(N0466N)}
M0467A  {v(N0467A)}
M0467B  {v(N0467B)}
M0467C  {v(N0467C)}
M0467N  {v(N0467N)}
M0468A  {v(N0468A)}
M0468B  {v(N0468B)}
M0468C  {v(N0468C)}
M0468N  {v(N0468N)}
M0469A  {v(N0469A)}
M0469B  {v(N0469B)}
M0469C  {v(N0469C)}
M0469N  {v(N0469N)}
M0471A  {v(N0471A)}
M0471B  {v(N0471B)}
M0471C  {v(N0471C)}
M0471N  {v(N0471N)}
M0472A  {v(N0472A)}
M0472B  {v(N0472B)}
M0472C  {v(N0472C)}
M0472N  {v(N0472N)}
M0473A  {v(N0473A)}
M0473B  {v(N0473B)}
M0473C  {v(N0473C)}
M0473N  {v(N0473N)}
M0474A  {v(N0474A)}
M0474B  {v(N0474B)}
M0474C  {v(N0474C)}
M0474N  {v(N0474N)}
M0475A  {v(N0475A)}
M0475B  {v(N0475B)}
M0475C  {v(N0475C)}
M0475N  {v(N0475N)}
M0476A  {v(N0476A)}
M0476B  {v(N0476B)}
M0476C  {v(N0476C)}
M0476N  {v(N0476N)}
M0477A  {v(N0477A)}
M0477B  {v(N0477B)}
M0477C  {v(N0477C)}
M0477N  {v(N0477N)}
M0478A  {v(N0478A)}
M0478B  {v(N0478B)}
M0478C  {v(N0478C)}
M0478N  {v(N0478N)}
M0479A  {v(N0479A)}
M0479B  {v(N0479B)}
M0479C  {v(N0479C)}
M0479N  {v(N0479N)}
M0480A  {v(N0480A)}
M0480B  {v(N0480B)}
M0480C  {v(N0480C)}
M0480N  {v(N0480N)}
M0481A  {v(N0481A)}
M0481B  {v(N0481B)}
M0481C  {v(N0481C)}
M0481N  {v(N0481N)}
M0482A  {v(N0482A)}
M0482B  {v(N0482B)}
M0482C  {v(N0482C)}
M0482N  {v(N0482N)}
M0483A  {v(N0483A)}
M0483B  {v(N0483B)}
M0483C  {v(N0483C)}
M0483N  {v(N0483N)}
M0484A  {v(N0484A)}
M0484B  {v(N0484B)}
M0484C  {v(N0484C)}
M0484N  {v(N0484N)}
M0485A  {v(N0485A)}
M0485B  {v(N0485B)}
M0485C  {v(N0485C)}
M0485N  {v(N0485N)}
M0486A  {v(N0486A)}
M0486B  {v(N0486B)}
M0486C  {v(N0486C)}
M0486N  {v(N0486N)}
M0487A  {v(N0487A)}
M0487B  {v(N0487B)}
M0487C  {v(N0487C)}
M0487N  {v(N0487N)}
M0488A  {v(N0488A)}
M0488B  {v(N0488B)}
M0488C  {v(N0488C)}
M0488N  {v(N0488N)}
M0489A  {v(N0489A)}
M0489B  {v(N0489B)}
M0489C  {v(N0489C)}
M0489N  {v(N0489N)}
M0490A  {v(N0490A)}
M0490B  {v(N0490B)}
M0490C  {v(N0490C)}
M0490N  {v(N0490N)}
M0491A  {v(N0491A)}
M0491B  {v(N0491B)}
M0491C  {v(N0491C)}
M0491N  {v(N0491N)}
M0492A  {v(N0492A)}
M0492B  {v(N0492B)}
M0492C  {v(N0492C)}
M0492N  {v(N0492N)}
M0493A  {v(N0493A)}
M0493B  {v(N0493B)}
M0493C  {v(N0493C)}
M0493N  {v(N0493N)}
M0494A  {v(N0494A)}
M0494B  {v(N0494B)}
M0494C  {v(N0494C)}
M0494N  {v(N0494N)}
M0495A  {v(N0495A)}
M0495B  {v(N0495B)}
M0495C  {v(N0495C)}
M0495N  {v(N0495N)}
M0496A  {v(N0496A)}
M0496B  {v(N0496B)}
M0496C  {v(N0496C)}
M0496N  {v(N0496N)}
M0574A  {v(N0574A)}
M0574B  {v(N0574B)}
M0574C  {v(N0574C)}
M0574N  {v(N0574N)}
M0575A  {v(N0575A)}
M0575B  {v(N0575B)}
M0575C  {v(N0575C)}
M0575N  {v(N0575N)}
M0576A  {v(N0576A)}
M0576B  {v(N0576B)}
M0576C  {v(N0576C)}
M0576N  {v(N0576N)}
M0577A  {v(N0577A)}
M0577B  {v(N0577B)}
M0577C  {v(N0577C)}
M0577N  {v(N0577N)}
M0578A  {v(N0578A)}
M0578B  {v(N0578B)}
M0578C  {v(N0578C)}
M0578N  {v(N0578N)}
M0579A  {v(N0579A)}
M0579B  {v(N0579B)}
M0579C  {v(N0579C)}
M0579N  {v(N0579N)}
M0580A  {v(N0580A)}
M0580B  {v(N0580B)}
M0580C  {v(N0580C)}
M0580N  {v(N0580N)}
M0581A  {v(N0581A)}
M0581B  {v(N0581B)}
M0581C  {v(N0581C)}
M0581N  {v(N0581N)}
M0582A  {v(N0582A)}
M0582B  {v(N0582B)}
M0582C  {v(N0582C)}
M0582N  {v(N0582N)}
M0583A  {v(N0583A)}
M0583B  {v(N0583B)}
M0583C  {v(N0583C)}
M0583N  {v(N0583N)}
M0584A  {v(N0584A)}
M0584B  {v(N0584B)}
M0584C  {v(N0584C)}
M0584N  {v(N0584N)}
OUTPUT
   L0001A
   R0001A
   L0001B
   R0001B
   L0001C
   R0001C
   L0001N
   R0001N
   L0002A
   R0002A
   L0002B
   R0002B
   L0002C
   R0002C
   L0002N
   R0002N
   L0003A
   R0003A
   L0003B
   R0003B
   L0003C
   R0003C
   L0003N
   R0003N
   L0004A
   R0004A
   L0004B
   R0004B
   L0004C
   R0004C
   L0004N
   R0004N
   L0005A
   R0005A
   L0005B
   R0005B
   L0005C
   R0005C
   L0005N
   R0005N
   L0006A
   R0006A
   L0006B
   R0006B
   L0006C
   R0006C
   L0006N
   R0006N
   L0007A
   R0007A
   L0007B
   R0007B
   L0007C
   R0007C
   L0007N
   R0007N
   L0008A
   R0008A
   L0008B
   R0008B
   L0008C
   R0008C
   L0008N
   R0008N
   L0009A
   R0009A
   L0009B
   R0009B
   L0009C
   R0009C
   L0009N
   R0009N
   L0010A
   R0010A
   L0010B
   R0010B
   L0010C
   R0010C
   L0010N
   R0010N
   L0011A
   R0011A
   L0011B
   R0011B
   L0011C
   R0011C
   L0011N
   R0011N
   L0012A
   R0012A
   L0012B
   R0012B
   L0012C
   R0012C
   L0012N
   R0012N
   L0013A
   R0013A
   L0013B
   R0013B
   L0013C
   R0013C
   L0013N
   R0013N
   L0014A
   R0014A
   L0014B
   R0014B
   L0014C
   R0014C
   L0014N
   R0014N
   L0015A
   R0015A
   L0015B
   R0015B
   L0015C
   R0015C
   L0015N
   R0015N
   L0016A
   R0016A
   L0016B
   R0016B
   L0016C
   R0016C
   L0016N
   R0016N
   L0017A
   R0017A
   L0017B
   R0017B
   L0017C
   R0017C
   L0017N
   R0017N
   L0018A
   R0018A
   L0018B
   R0018B
   L0018C
   R0018C
   L0018N
   R0018N
   L0019A
   R0019A
   L0019B
   R0019B
   L0019C
   R0019C
   L0019N
   R0019N
   L0020A
   R0020A
   L0020B
   R0020B
   L0020C
   R0020C
   L0020N
   R0020N
   L0021A
   R0021A
   L0021B
   R0021B
   L0021C
   R0021C
   L0021N
   R0021N
   L0022A
   R0022A
   L0022B
   R0022B
   L0022C
   R0022C
   L0022N
   R0022N
   L0023A
   R0023A
   L0023B
   R0023B
   L0023C
   R0023C
   L0023N
   R0023N
   L0024A
   R0024A
   L0024B
   R0024B
   L0024C
   R0024C
   L0024N
   R0024N
   L0025A
   R0025A
   L0025B
   R0025B
   L0025C
   R0025C
   L0025N
   R0025N
   L0026A
   R0026A
   L0026B
   R0026B
   L0026C
   R0026C
   L0026N
   R0026N
   L0027A
   R0027A
   L0027B
   R0027B
   L0027C
   R0027C
   L0027N
   R0027N
   L0028A
   R0028A
   L0028B
   R0028B
   L0028C
   R0028C
   L0028N
   R0028N
   L0029A
   R0029A
   L0029B
   R0029B
   L0029C
   R0029C
   L0029N
   R0029N
   L0030A
   R0030A
   L0030B
   R0030B
   L0030C
   R0030C
   L0030N
   R0030N
   L0031A
   R0031A
   L0031B
   R0031B
   L0031C
   R0031C
   L0031N
   R0031N
   L0032A
   R0032A
   L0032B
   R0032B
   L0032C
   R0032C
   L0032N
   R0032N
   L0033A
   R0033A
   L0033B
   R0033B
   L0033C
   R0033C
   L0033N
   R0033N
   L0034A
   R0034A
   L0034B
   R0034B
   L0034C
   R0034C
   L0034N
   R0034N
   L0035A
   R0035A
   L0035B
   R0035B
   L0035C
   R0035C
   L0035N
   R0035N
   L0036A
   R0036A
   L0036B
   R0036B
   L0036C
   R0036C
   L0036N
   R0036N
   L0037A
   R0037A
   L0037B
   R0037B
   L0037C
   R0037C
   L0037N
   R0037N
   L0038A
   R0038A
   L0038B
   R0038B
   L0038C
   R0038C
   L0038N
   R0038N
   L0039A
   R0039A
   L0039B
   R0039B
   L0039C
   R0039C
   L0039N
   R0039N
   L0040A
   R0040A
   L0040B
   R0040B
   L0040C
   R0040C
   L0040N
   R0040N
   L0041A
   R0041A
   L0041B
   R0041B
   L0041C
   R0041C
   L0041N
   R0041N
   L0042A
   R0042A
   L0042B
   R0042B
   L0042C
   R0042C
   L0042N
   R0042N
   L0043A
   R0043A
   L0043B
   R0043B
   L0043C
   R0043C
   L0043N
   R0043N
   L0044A
   R0044A
   L0044B
   R0044B
   L0044C
   R0044C
   L0044N
   R0044N
   L0045A
   R0045A
   L0045B
   R0045B
   L0045C
   R0045C
   L0045N
   R0045N
   L0046A
   R0046A
   L0046B
   R0046B
   L0046C
   R0046C
   L0046N
   R0046N
   L0047A
   R0047A
   L0047B
   R0047B
   L0047C
   R0047C
   L0047N
   R0047N
   L0048A
   R0048A
   L0048B
   R0048B
   L0048C
   R0048C
   L0048N
   R0048N
   L0049A
   R0049A
   L0049B
   R0049B
   L0049C
   R0049C
   L0049N
   R0049N
   L0050A
   R0050A
   L0050B
   R0050B
   L0050C
   R0050C
   L0050N
   R0050N
   L0051A
   R0051A
   L0051B
   R0051B
   L0051C
   R0051C
   L0051N
   R0051N
   L0052A
   R0052A
   L0052B
   R0052B
   L0052C
   R0052C
   L0052N
   R0052N
   L0053A
   R0053A
   L0053B
   R0053B
   L0053C
   R0053C
   L0053N
   R0053N
   L0054A
   R0054A
   L0054B
   R0054B
   L0054C
   R0054C
   L0054N
   R0054N
   L0055A
   R0055A
   L0055B
   R0055B
   L0055C
   R0055C
   L0055N
   R0055N
   L0056A
   R0056A
   L0056B
   R0056B
   L0056C
   R0056C
   L0056N
   R0056N
   L0057A
   R0057A
   L0057B
   R0057B
   L0057C
   R0057C
   L0057N
   R0057N
   L0058A
   R0058A
   L0058B
   R0058B
   L0058C
   R0058C
   L0058N
   R0058N
   L0059A
   R0059A
   L0059B
   R0059B
   L0059C
   R0059C
   L0059N
   R0059N
   L0060A
   R0060A
   L0060B
   R0060B
   L0060C
   R0060C
   L0060N
   R0060N
   L0061A
   R0061A
   L0061B
   R0061B
   L0061C
   R0061C
   L0061N
   R0061N
   L0062A
   R0062A
   L0062B
   R0062B
   L0062C
   R0062C
   L0062N
   R0062N
   L0063A
   R0063A
   L0063B
   R0063B
   L0063C
   R0063C
   L0063N
   R0063N
   L0064A
   R0064A
   L0064B
   R0064B
   L0064C
   R0064C
   L0064N
   R0064N
   L0065A
   R0065A
   L0065B
   R0065B
   L0065C
   R0065C
   L0065N
   R0065N
   L0066A
   R0066A
   L0066B
   R0066B
   L0066C
   R0066C
   L0066N
   R0066N
   L0067A
   R0067A
   L0067B
   R0067B
   L0067C
   R0067C
   L0067N
   R0067N
   L0068A
   R0068A
   L0068B
   R0068B
   L0068C
   R0068C
   L0068N
   R0068N
   L0069A
   R0069A
   L0069B
   R0069B
   L0069C
   R0069C
   L0069N
   R0069N
   L0070A
   R0070A
   L0070B
   R0070B
   L0070C
   R0070C
   L0070N
   R0070N
   L0071A
   R0071A
   L0071B
   R0071B
   L0071C
   R0071C
   L0071N
   R0071N
   L0072A
   R0072A
   L0072B
   R0072B
   L0072C
   R0072C
   L0072N
   R0072N
   L0073A
   R0073A
   L0073B
   R0073B
   L0073C
   R0073C
   L0073N
   R0073N
   L0074A
   R0074A
   L0074B
   R0074B
   L0074C
   R0074C
   L0074N
   R0074N
   L0075A
   R0075A
   L0075B
   R0075B
   L0075C
   R0075C
   L0075N
   R0075N
   L0076A
   R0076A
   L0076B
   R0076B
   L0076C
   R0076C
   L0076N
   R0076N
   L0077A
   R0077A
   L0077B
   R0077B
   L0077C
   R0077C
   L0077N
   R0077N
   L0078A
   R0078A
   L0078B
   R0078B
   L0078C
   R0078C
   L0078N
   R0078N
   L0079A
   R0079A
   L0079B
   R0079B
   L0079C
   R0079C
   L0079N
   R0079N
   L0080A
   R0080A
   L0080B
   R0080B
   L0080C
   R0080C
   L0080N
   R0080N
   L0081A
   R0081A
   L0081B
   R0081B
   L0081C
   R0081C
   L0081N
   R0081N
   L0082A
   R0082A
   L0082B
   R0082B
   L0082C
   R0082C
   L0082N
   R0082N
   L0083A
   R0083A
   L0083B
   R0083B
   L0083C
   R0083C
   L0083N
   R0083N
   L0084A
   R0084A
   L0084B
   R0084B
   L0084C
   R0084C
   L0084N
   R0084N
   L0085A
   R0085A
   L0085B
   R0085B
   L0085C
   R0085C
   L0085N
   R0085N
   L0086A
   R0086A
   L0086B
   R0086B
   L0086C
   R0086C
   L0086N
   R0086N
   L0087A
   R0087A
   L0087B
   R0087B
   L0087C
   R0087C
   L0087N
   R0087N
   L0088A
   R0088A
   L0088B
   R0088B
   L0088C
   R0088C
   L0088N
   R0088N
   L0089A
   R0089A
   L0089B
   R0089B
   L0089C
   R0089C
   L0089N
   R0089N
   L0090A
   R0090A
   L0090B
   R0090B
   L0090C
   R0090C
   L0090N
   R0090N
   L0091A
   R0091A
   L0091B
   R0091B
   L0091C
   R0091C
   L0091N
   R0091N
   L0092A
   R0092A
   L0092B
   R0092B
   L0092C
   R0092C
   L0092N
   R0092N
   L0093A
   R0093A
   L0093B
   R0093B
   L0093C
   R0093C
   L0093N
   R0093N
   L0094A
   R0094A
   L0094B
   R0094B
   L0094C
   R0094C
   L0094N
   R0094N
   L0095A
   R0095A
   L0095B
   R0095B
   L0095C
   R0095C
   L0095N
   R0095N
   L0096A
   R0096A
   L0096B
   R0096B
   L0096C
   R0096C
   L0096N
   R0096N
   L0097A
   R0097A
   L0097B
   R0097B
   L0097C
   R0097C
   L0097N
   R0097N
   L0098A
   R0098A
   L0098B
   R0098B
   L0098C
   R0098C
   L0098N
   R0098N
   L0099A
   R0099A
   L0099B
   R0099B
   L0099C
   R0099C
   L0099N
   R0099N
   L0100A
   R0100A
   L0100B
   R0100B
   L0100C
   R0100C
   L0100N
   R0100N
   L0101A
   R0101A
   L0101B
   R0101B
   L0101C
   R0101C
   L0101N
   R0101N
   L0102A
   R0102A
   L0102B
   R0102B
   L0102C
   R0102C
   L0102N
   R0102N
   L0103A
   R0103A
   L0103B
   R0103B
   L0103C
   R0103C
   L0103N
   R0103N
   L0104A
   R0104A
   L0104B
   R0104B
   L0104C
   R0104C
   L0104N
   R0104N
   L0105A
   R0105A
   L0105B
   R0105B
   L0105C
   R0105C
   L0105N
   R0105N
   L0106A
   R0106A
   L0106B
   R0106B
   L0106C
   R0106C
   L0106N
   R0106N
   L0107A
   R0107A
   L0107B
   R0107B
   L0107C
   R0107C
   L0107N
   R0107N
   L0108A
   R0108A
   L0108B
   R0108B
   L0108C
   R0108C