BEGIN NEW DATA CASE
C --------------------------------------------------------
C Generated by YALUK DRAW 2.0
C Developed by: Ernesto Pérez G
C eperezg@unal.edu.co
C Universidad Nacional de Colombia
C File Created on: 11/12/2020 12:05:08 PM
C --------------------------------------------------------
C Project Name:test
C   
C  dT  >< Tmax >< Xopt >< Copt > 
.5000E-7.4000E-4
  999999       1       1       1       1       0       0       1       0
/MODELS
MODELS
INPUT
M0001A  {v(N0001A)}
M0002A  {v(N0002A)}
M0003A  {v(N0003A)}
M0004A  {v(N0004A)}
M0005A  {v(N0005A)}
M0006A  {v(N0006A)}
OUTPUT
   L0001A
   R0001A
   L0002A
   R0002A
   L0003A
   R0003A
   L0004A
   R0004A
   L0005A
   R0005A
MODEL Yaluk1
 -- This model is link with ATP by means of a iluminated line characteristic method
 -- It must have four inputs for one single line (Va,Ia,Vb,Ib)
CONST
cond {VAL:1} --num. phases
INPUT
  Va[1..cond]
  Vb[1..cond]
VAR Vfa[1..cond],Vfb[1..cond]
OUTPUT
   Vfa,Vfb
DATA
	No_Lin
MODEL yaluk_f FOREIGN YALUK_DLL_MODEL {ixdata:4, ixin:3, ixout:2, ixvar:200}
EXEC -- using the DLL subroutine
  USE yaluk_f AS yaluk_f
    DATA xdata[1..4]:=[timestep,stoptime,cond,No_Lin]
    INPUT xin[1..2*cond+1]:=[t,Va[1..cond],Vb[1..cond]]
  --    HISTORY histdef(xvar[1]):=0
    OUTPUT 	Vfa[1..cond]:=xout[1..cond]
		Vfb[1..cond]:=xout[cond+1..2*cond]
  ENDUSE
  ENDEXEC
ENDMODEL
USE Yaluk1 AS Yaluk0001
INPUT
  Va[1]:=M0001A
  Vb[1]:=M0002A
DATA
  No_Lin:=1
OUTPUT
  L0001A:=Vfa[1]
  R0001A:=Vfb[1]
ENDUSE
USE Yaluk1 AS Yaluk0001
INPUT
  Va[1]:=M0002A
  Vb[1]:=M0003A
DATA
  No_Lin:=2
OUTPUT
  L0002A:=Vfa[1]
  R0002A:=Vfb[1]
ENDUSE
USE Yaluk1 AS Yaluk0001
INPUT
  Va[1]:=M0003A
  Vb[1]:=M0004A
DATA
  No_Lin:=3
OUTPUT
  L0003A:=Vfa[1]
  R0003A:=Vfb[1]
ENDUSE
USE Yaluk1 AS Yaluk0001
INPUT
  Va[1]:=M0002A
  Vb[1]:=M0005A
DATA
  No_Lin:=4
OUTPUT
  L0004A:=Vfa[1]
  R0004A:=Vfb[1]
ENDUSE
USE Yaluk1 AS Yaluk0001
INPUT
  Va[1]:=M0005A
  Vb[1]:=M0006A
DATA
  No_Lin:=5
OUTPUT
  L0005A:=Vfa[1]
  R0005A:=Vfb[1]
ENDUSE
ENDMODELS
/BRANCH
C < n1 >< n2 ><ref1><ref2>< R  >< A  >< B  >
51N0001AL0001A            0497.3
51N0002AR0001A            0497.3
51N0002AL0002A            0497.3
51N0003AR0002A            0497.3
51N0003AL0003A            0497.3
51N0004AR0003A            0497.3
51N0002AL0004A            0497.3
51N0005AR0004A            0497.3
51N0005AL0005A            0497.3
51N0006AR0005A            0497.3
  N0001A                  0497.0                                               0
/SOURCE
C < n 1><>< Ampl.  >< Freq.  ><Phase/T0><   A1   ><   T1   >< TSTART >< TSTOP  >
60L0001A                                                             0      1.E3
60R0001A                                                             0      1.E3
60L0002A                                                             0      1.E3
60R0002A                                                             0      1.E3
60L0003A                                                             0      1.E3
60R0003A                                                             0      1.E3
60L0004A                                                             0      1.E3
60R0004A                                                             0      1.E3
60L0005A                                                             0      1.E3
60R0005A                                                             0      1.E3
/OUTPUT
  N0001AN0002AN0003AN0004AN0005AN0006A
C ENDING DIRECTIVES
BLANK MODELS
BLANK BRANCH
BLANK SWITCH
BLANK SOURCE
BLANK OUTPUT
BLANK PLOT
BEGIN NEW DATA CASE
BLANK
