BEGIN NEW DATA CASE
C --------------------------------------------------------
C Generated by YALUK DRAW 2.0
C Developed by: Ernesto Pérez G
C eperezg@unal.edu.co
C Universidad Nacional de Colombia
C File Created on: 12/9/2020 7:57:37 PM
C --------------------------------------------------------
C Project Name:L92_503_circuitB3.0
C   
C  dT  >< Tmax >< Xopt >< Copt > 
.5000E-7.3500E-4
  999999     100       0       0       1       0       0       0       0
/MODELS
MODELS
INPUT
M0001A  {v(N0001A)}
M0001B  {v(N0001B)}
M0001C  {v(N0001C)}
M0001N  {v(N0001N)}
M0002A  {v(N0002A)}
M0002B  {v(N0002B)}
M0002C  {v(N0002C)}
M0002N  {v(N0002N)}
M0003A  {v(N0003A)}
M0003B  {v(N0003B)}
M0003C  {v(N0003C)}
M0003N  {v(N0003N)}
M0004A  {v(N0004A)}
M0004B  {v(N0004B)}
M0004C  {v(N0004C)}
M0004N  {v(N0004N)}
M0005A  {v(N0005A)}
M0005B  {v(N0005B)}
M0005C  {v(N0005C)}
M0005N  {v(N0005N)}
M0006A  {v(N0006A)}
M0006B  {v(N0006B)}
M0006C  {v(N0006C)}
M0006N  {v(N0006N)}
M0008A  {v(N0008A)}
M0008B  {v(N0008B)}
M0008C  {v(N0008C)}
M0008N  {v(N0008N)}
M0009A  {v(N0009A)}
M0009B  {v(N0009B)}
M0009C  {v(N0009C)}
M0009N  {v(N0009N)}
M0010A  {v(N0010A)}
M0010B  {v(N0010B)}
M0010C  {v(N0010C)}
M0010N  {v(N0010N)}
M0011A  {v(N0011A)}
M0011B  {v(N0011B)}
M0011C  {v(N0011C)}
M0011N  {v(N0011N)}
M0012A  {v(N0012A)}
M0012B  {v(N0012B)}
M0012C  {v(N0012C)}
M0012N  {v(N0012N)}
M0013A  {v(N0013A)}
M0013B  {v(N0013B)}
M0013C  {v(N0013C)}
M0013N  {v(N0013N)}
M0014A  {v(N0014A)}
M0014B  {v(N0014B)}
M0014C  {v(N0014C)}
M0014N  {v(N0014N)}
M0015A  {v(N0015A)}
M0015B  {v(N0015B)}
M0015C  {v(N0015C)}
M0015N  {v(N0015N)}
M0016A  {v(N0016A)}
M0016B  {v(N0016B)}
M0016C  {v(N0016C)}
M0016N  {v(N0016N)}
M0017A  {v(N0017A)}
M0017B  {v(N0017B)}
M0017C  {v(N0017C)}
M0017N  {v(N0017N)}
M0018A  {v(N0018A)}
M0018B  {v(N0018B)}
M0018C  {v(N0018C)}
M0018N  {v(N0018N)}
M0019A  {v(N0019A)}
M0019B  {v(N0019B)}
M0019C  {v(N0019C)}
M0019N  {v(N0019N)}
M0020A  {v(N0020A)}
M0020B  {v(N0020B)}
M0020C  {v(N0020C)}
M0020N  {v(N0020N)}
M0021A  {v(N0021A)}
M0021B  {v(N0021B)}
M0021C  {v(N0021C)}
M0021N  {v(N0021N)}
M0022A  {v(N0022A)}
M0022B  {v(N0022B)}
M0022C  {v(N0022C)}
M0022N  {v(N0022N)}
M0023A  {v(N0023A)}
M0023B  {v(N0023B)}
M0023C  {v(N0023C)}
M0023N  {v(N0023N)}
M0024A  {v(N0024A)}
M0024B  {v(N0024B)}
M0024C  {v(N0024C)}
M0024N  {v(N0024N)}
M0025A  {v(N0025A)}
M0025B  {v(N0025B)}
M0025C  {v(N0025C)}
M0025N  {v(N0025N)}
M0026A  {v(N0026A)}
M0026B  {v(N0026B)}
M0026C  {v(N0026C)}
M0026N  {v(N0026N)}
M0028A  {v(N0028A)}
M0028B  {v(N0028B)}
M0028C  {v(N0028C)}
M0028N  {v(N0028N)}
M0029A  {v(N0029A)}
M0029B  {v(N0029B)}
M0029C  {v(N0029C)}
M0029N  {v(N0029N)}
M0030A  {v(N0030A)}
M0030B  {v(N0030B)}
M0030C  {v(N0030C)}
M0030N  {v(N0030N)}
M0031A  {v(N0031A)}
M0031B  {v(N0031B)}
M0031C  {v(N0031C)}
M0031N  {v(N0031N)}
M0032A  {v(N0032A)}
M0032B  {v(N0032B)}
M0032C  {v(N0032C)}
M0032N  {v(N0032N)}
M0033A  {v(N0033A)}
M0033B  {v(N0033B)}
M0033C  {v(N0033C)}
M0033N  {v(N0033N)}
M0034A  {v(N0034A)}
M0034B  {v(N0034B)}
M0034C  {v(N0034C)}
M0034N  {v(N0034N)}
M0035A  {v(N0035A)}
M0035B  {v(N0035B)}
M0035C  {v(N0035C)}
M0035N  {v(N0035N)}
M0036A  {v(N0036A)}
M0036B  {v(N0036B)}
M0036C  {v(N0036C)}
M0036N  {v(N0036N)}
M0037A  {v(N0037A)}
M0037B  {v(N0037B)}
M0037C  {v(N0037C)}
M0037N  {v(N0037N)}
M0038A  {v(N0038A)}
M0038B  {v(N0038B)}
M0038C  {v(N0038C)}
M0038N  {v(N0038N)}
M0039A  {v(N0039A)}
M0039B  {v(N0039B)}
M0039C  {v(N0039C)}
M0039N  {v(N0039N)}
M0040A  {v(N0040A)}
M0040B  {v(N0040B)}
M0040C  {v(N0040C)}
M0040N  {v(N0040N)}
M0041A  {v(N0041A)}
M0041B  {v(N0041B)}
M0041C  {v(N0041C)}
M0041N  {v(N0041N)}
M0042A  {v(N0042A)}
M0042B  {v(N0042B)}
M0042C  {v(N0042C)}
M0042N  {v(N0042N)}
M0043A  {v(N0043A)}
M0043B  {v(N0043B)}
M0043C  {v(N0043C)}
M0043N  {v(N0043N)}
M0044A  {v(N0044A)}
M0044B  {v(N0044B)}
M0044C  {v(N0044C)}
M0044N  {v(N0044N)}
M0045A  {v(N0045A)}
M0045B  {v(N0045B)}
M0045C  {v(N0045C)}
M0045N  {v(N0045N)}
M0046A  {v(N0046A)}
M0046B  {v(N0046B)}
M0046C  {v(N0046C)}
M0046N  {v(N0046N)}
M0047A  {v(N0047A)}
M0047B  {v(N0047B)}
M0047C  {v(N0047C)}
M0047N  {v(N0047N)}
M0048A  {v(N0048A)}
M0048B  {v(N0048B)}
M0048C  {v(N0048C)}
M0048N  {v(N0048N)}
M0049A  {v(N0049A)}
M0049B  {v(N0049B)}
M0049C  {v(N0049C)}
M0049N  {v(N0049N)}
M0050A  {v(N0050A)}
M0050B  {v(N0050B)}
M0050C  {v(N0050C)}
M0050N  {v(N0050N)}
M0051A  {v(N0051A)}
M0051B  {v(N0051B)}
M0051C  {v(N0051C)}
M0051N  {v(N0051N)}
M0052A  {v(N0052A)}
M0052B  {v(N0052B)}
M0052C  {v(N0052C)}
M0052N  {v(N0052N)}
M0053A  {v(N0053A)}
M0053B  {v(N0053B)}
M0053C  {v(N0053C)}
M0053N  {v(N0053N)}
M0054A  {v(N0054A)}
M0054B  {v(N0054B)}
M0054C  {v(N0054C)}
M0054N  {v(N0054N)}
M0055A  {v(N0055A)}
M0055B  {v(N0055B)}
M0055C  {v(N0055C)}
M0055N  {v(N0055N)}
M0056A  {v(N0056A)}
M0056B  {v(N0056B)}
M0056C  {v(N0056C)}
M0056N  {v(N0056N)}
M0057A  {v(N0057A)}
M0057B  {v(N0057B)}
M0057C  {v(N0057C)}
M0057N  {v(N0057N)}
M0058A  {v(N0058A)}
M0058B  {v(N0058B)}
M0058C  {v(N0058C)}
M0058N  {v(N0058N)}
M0059A  {v(N0059A)}
M0059B  {v(N0059B)}
M0059C  {v(N0059C)}
M0059N  {v(N0059N)}
M0060A  {v(N0060A)}
M0060B  {v(N0060B)}
M0060C  {v(N0060C)}
M0060N  {v(N0060N)}
M0061A  {v(N0061A)}
M0061B  {v(N0061B)}
M0061C  {v(N0061C)}
M0061N  {v(N0061N)}
M0062A  {v(N0062A)}
M0062B  {v(N0062B)}
M0062C  {v(N0062C)}
M0062N  {v(N0062N)}
M0063A  {v(N0063A)}
M0063B  {v(N0063B)}
M0063C  {v(N0063C)}
M0063N  {v(N0063N)}
M0065A  {v(N0065A)}
M0065B  {v(N0065B)}
M0065C  {v(N0065C)}
M0065N  {v(N0065N)}
M0066A  {v(N0066A)}
M0066B  {v(N0066B)}
M0066C  {v(N0066C)}
M0066N  {v(N0066N)}
M0067A  {v(N0067A)}
M0067B  {v(N0067B)}
M0067C  {v(N0067C)}
M0067N  {v(N0067N)}
M0068A  {v(N0068A)}
M0068B  {v(N0068B)}
M0068C  {v(N0068C)}
M0068N  {v(N0068N)}
M0069A  {v(N0069A)}
M0069B  {v(N0069B)}
M0069C  {v(N0069C)}
M0069N  {v(N0069N)}
M0070A  {v(N0070A)}
M0070B  {v(N0070B)}
M0070C  {v(N0070C)}
M0070N  {v(N0070N)}
M0071A  {v(N0071A)}
M0071B  {v(N0071B)}
M0071C  {v(N0071C)}
M0071N  {v(N0071N)}
M0072A  {v(N0072A)}
M0072B  {v(N0072B)}
M0072C  {v(N0072C)}
M0072N  {v(N0072N)}
M0073A  {v(N0073A)}
M0073B  {v(N0073B)}
M0073C  {v(N0073C)}
M0073N  {v(N0073N)}
M0074A  {v(N0074A)}
M0074B  {v(N0074B)}
M0074C  {v(N0074C)}
M0074N  {v(N0074N)}
M0075A  {v(N0075A)}
M0075B  {v(N0075B)}
M0075C  {v(N0075C)}
M0075N  {v(N0075N)}
M0076A  {v(N0076A)}
M0076B  {v(N0076B)}
M0076C  {v(N0076C)}
M0076N  {v(N0076N)}
M0077A  {v(N0077A)}
M0077B  {v(N0077B)}
M0077C  {v(N0077C)}
M0077N  {v(N0077N)}
M0078A  {v(N0078A)}
M0078B  {v(N0078B)}
M0078C  {v(N0078C)}
M0078N  {v(N0078N)}
M0079A  {v(N0079A)}
M0079B  {v(N0079B)}
M0079C  {v(N0079C)}
M0079N  {v(N0079N)}
M0080A  {v(N0080A)}
M0080B  {v(N0080B)}
M0080C  {v(N0080C)}
M0080N  {v(N0080N)}
M0081A  {v(N0081A)}
M0081B  {v(N0081B)}
M0081C  {v(N0081C)}
M0081N  {v(N0081N)}
M0082A  {v(N0082A)}
M0082B  {v(N0082B)}
M0082C  {v(N0082C)}
M0082N  {v(N0082N)}
M0083A  {v(N0083A)}
M0083B  {v(N0083B)}
M0083C  {v(N0083C)}
M0083N  {v(N0083N)}
M0084A  {v(N0084A)}
M0084B  {v(N0084B)}
M0084C  {v(N0084C)}
M0084N  {v(N0084N)}
M0085A  {v(N0085A)}
M0085B  {v(N0085B)}
M0085C  {v(N0085C)}
M0085N  {v(N0085N)}
M0086A  {v(N0086A)}
M0086B  {v(N0086B)}
M0086C  {v(N0086C)}
M0086N  {v(N0086N)}
M0087A  {v(N0087A)}
M0087B  {v(N0087B)}
M0087C  {v(N0087C)}
M0087N  {v(N0087N)}
M0088A  {v(N0088A)}
M0088B  {v(N0088B)}
M0088C  {v(N0088C)}
M0088N  {v(N0088N)}
M0089A  {v(N0089A)}
M0089B  {v(N0089B)}
M0089C  {v(N0089C)}
M0089N  {v(N0089N)}
M0090A  {v(N0090A)}
M0090B  {v(N0090B)}
M0090C  {v(N0090C)}
M0090N  {v(N0090N)}
M0091A  {v(N0091A)}
M0091B  {v(N0091B)}
M0091C  {v(N0091C)}
M0091N  {v(N0091N)}
M0092A  {v(N0092A)}
M0092B  {v(N0092B)}
M0092C  {v(N0092C)}
M0092N  {v(N0092N)}
M0093A  {v(N0093A)}
M0093B  {v(N0093B)}
M0093C  {v(N0093C)}
M0093N  {v(N0093N)}
M0094A  {v(N0094A)}
M0094B  {v(N0094B)}
M0094C  {v(N0094C)}
M0094N  {v(N0094N)}
M0095A  {v(N0095A)}
M0095B  {v(N0095B)}
M0095C  {v(N0095C)}
M0095N  {v(N0095N)}
M0096A  {v(N0096A)}
M0096B  {v(N0096B)}
M0096C  {v(N0096C)}
M0096N  {v(N0096N)}
M0097A  {v(N0097A)}
M0097B  {v(N0097B)}
M0097C  {v(N0097C)}
M0097N  {v(N0097N)}
M0098A  {v(N0098A)}
M0098B  {v(N0098B)}
M0098C  {v(N0098C)}
M0098N  {v(N0098N)}
M0099A  {v(N0099A)}
M0099B  {v(N0099B)}
M0099C  {v(N0099C)}
M0099N  {v(N0099N)}
M0100A  {v(N0100A)}
M0100B  {v(N0100B)}
M0100C  {v(N0100C)}
M0100N  {v(N0100N)}
M0101A  {v(N0101A)}
M0101B  {v(N0101B)}
M0101C  {v(N0101C)}
M0101N  {v(N0101N)}
M0102A  {v(N0102A)}
M0102B  {v(N0102B)}
M0102C  {v(N0102C)}
M0102N  {v(N0102N)}
M0103A  {v(N0103A)}
M0103B  {v(N0103B)}
M0103C  {v(N0103C)}
M0103N  {v(N0103N)}
M0104A  {v(N0104A)}
M0104B  {v(N0104B)}
M0104C  {v(N0104C)}
M0104N  {v(N0104N)}
M0105A  {v(N0105A)}
M0105B  {v(N0105B)}
M0105C  {v(N0105C)}
M0105N  {v(N0105N)}
M0106A  {v(N0106A)}
M0106B  {v(N0106B)}
M0106C  {v(N0106C)}
M0106N  {v(N0106N)}
M0107A  {v(N0107A)}
M0107B  {v(N0107B)}
M0107C  {v(N0107C)}
M0107N  {v(N0107N)}
M0108A  {v(N0108A)}
M0108B  {v(N0108B)}
M0108C  {v(N0108C)}
M0108N  {v(N0108N)}
M0109A  {v(N0109A)}
M0109B  {v(N0109B)}
M0109C  {v(N0109C)}
M0109N  {v(N0109N)}
M0110A  {v(N0110A)}
M0110B  {v(N0110B)}
M0110C  {v(N0110C)}
M0110N  {v(N0110N)}
M0111A  {v(N0111A)}
M0111B  {v(N0111B)}
M0111C  {v(N0111C)}
M0111N  {v(N0111N)}
M0112A  {v(N0112A)}
M0112B  {v(N0112B)}
M0112C  {v(N0112C)}
M0112N  {v(N0112N)}
M0113A  {v(N0113A)}
M0113B  {v(N0113B)}
M0113C  {v(N0113C)}
M0113N  {v(N0113N)}
M0114A  {v(N0114A)}
M0114B  {v(N0114B)}
M0114C  {v(N0114C)}
M0114N  {v(N0114N)}
M0115A  {v(N0115A)}
M0115B  {v(N0115B)}
M0115C  {v(N0115C)}
M0115N  {v(N0115N)}
M0116A  {v(N0116A)}
M0116B  {v(N0116B)}
M0116C  {v(N0116C)}
M0116N  {v(N0116N)}
M0117A  {v(N0117A)}
M0117B  {v(N0117B)}
M0117C  {v(N0117C)}
M0117N  {v(N0117N)}
M0118A  {v(N0118A)}
M0118B  {v(N0118B)}
M0118C  {v(N0118C)}
M0118N  {v(N0118N)}
M0119A  {v(N0119A)}
M0119B  {v(N0119B)}
M0119C  {v(N0119C)}
M0119N  {v(N0119N)}
M0120A  {v(N0120A)}
M0120B  {v(N0120B)}
M0120C  {v(N0120C)}
M0120N  {v(N0120N)}
M0121A  {v(N0121A)}
M0121B  {v(N0121B)}
M0121C  {v(N0121C)}
M0121N  {v(N0121N)}
M0122A  {v(N0122A)}
M0122B  {v(N0122B)}
M0122C  {v(N0122C)}
M0122N  {v(N0122N)}
M0123A  {v(N0123A)}
M0123B  {v(N0123B)}
M0123C  {v(N0123C)}
M0123N  {v(N0123N)}
M0124A  {v(N0124A)}
M0124B  {v(N0124B)}
M0124C  {v(N0124C)}
M0124N  {v(N0124N)}
M0125A  {v(N0125A)}
M0125B  {v(N0125B)}
M0125C  {v(N0125C)}
M0125N  {v(N0125N)}
M0126A  {v(N0126A)}
M0126B  {v(N0126B)}
M0126C  {v(N0126C)}
M0126N  {v(N0126N)}
M0127A  {v(N0127A)}
M0127B  {v(N0127B)}
M0127C  {v(N0127C)}
M0127N  {v(N0127N)}
M0128A  {v(N0128A)}
M0128B  {v(N0128B)}
M0128C  {v(N0128C)}
M0128N  {v(N0128N)}
M0129A  {v(N0129A)}
M0129B  {v(N0129B)}
M0129C  {v(N0129C)}
M0129N  {v(N0129N)}
M0130A  {v(N0130A)}
M0130B  {v(N0130B)}
M0130C  {v(N0130C)}
M0130N  {v(N0130N)}
M0131A  {v(N0131A)}
M0131B  {v(N0131B)}
M0131C  {v(N0131C)}
M0131N  {v(N0131N)}
M0132A  {v(N0132A)}
M0132B  {v(N0132B)}
M0132C  {v(N0132C)}
M0132N  {v(N0132N)}
M0133A  {v(N0133A)}
M0133B  {v(N0133B)}
M0133C  {v(N0133C)}
M0133N  {v(N0133N)}
M0134A  {v(N0134A)}
M0134B  {v(N0134B)}
M0134C  {v(N0134C)}
M0134N  {v(N0134N)}
M0135A  {v(N0135A)}
M0135B  {v(N0135B)}
M0135C  {v(N0135C)}
M0135N  {v(N0135N)}
M0136A  {v(N0136A)}
M0136B  {v(N0136B)}
M0136C  {v(N0136C)}
M0136N  {v(N0136N)}
M0137A  {v(N0137A)}
M0137B  {v(N0137B)}
M0137C  {v(N0137C)}
M0137N  {v(N0137N)}
M0138A  {v(N0138A)}
M0138B  {v(N0138B)}
M0138C  {v(N0138C)}
M0138N  {v(N0138N)}
M0139A  {v(N0139A)}
M0139B  {v(N0139B)}
M0139C  {v(N0139C)}
M0139N  {v(N0139N)}
M0140A  {v(N0140A)}
M0140B  {v(N0140B)}
M0140C  {v(N0140C)}
M0140N  {v(N0140N)}
M0141A  {v(N0141A)}
M0141B  {v(N0141B)}
M0141C  {v(N0141C)}
M0141N  {v(N0141N)}
M0142A  {v(N0142A)}
M0142B  {v(N0142B)}
M0142C  {v(N0142C)}
M0142N  {v(N0142N)}
M0143A  {v(N0143A)}
M0143B  {v(N0143B)}
M0143C  {v(N0143C)}
M0143N  {v(N0143N)}
M0144A  {v(N0144A)}
M0144B  {v(N0144B)}
M0144C  {v(N0144C)}
M0144N  {v(N0144N)}
M0145A  {v(N0145A)}
M0145B  {v(N0145B)}
M0145C  {v(N0145C)}
M0145N  {v(N0145N)}
M0146A  {v(N0146A)}
M0146B  {v(N0146B)}
M0146C  {v(N0146C)}
M0146N  {v(N0146N)}
M0147A  {v(N0147A)}
M0147B  {v(N0147B)}
M0147C  {v(N0147C)}
M0147N  {v(N0147N)}
M0148A  {v(N0148A)}
M0148B  {v(N0148B)}
M0148C  {v(N0148C)}
M0148N  {v(N0148N)}
M0149A  {v(N0149A)}
M0149B  {v(N0149B)}
M0149C  {v(N0149C)}
M0149N  {v(N0149N)}
M0295A  {v(N0295A)}
M0295B  {v(N0295B)}
M0295C  {v(N0295C)}
M0295N  {v(N0295N)}
M0296A  {v(N0296A)}
M0296B  {v(N0296B)}
M0296C  {v(N0296C)}
M0296N  {v(N0296N)}
M0297A  {v(N0297A)}
M0297B  {v(N0297B)}
M0297C  {v(N0297C)}
M0297N  {v(N0297N)}
M0298A  {v(N0298A)}
M0298B  {v(N0298B)}
M0298C  {v(N0298C)}
M0298N  {v(N0298N)}
M0299A  {v(N0299A)}
M0299B  {v(N0299B)}
M0299C  {v(N0299C)}
M0299N  {v(N0299N)}
M0300A  {v(N0300A)}
M0300B  {v(N0300B)}
M0300C  {v(N0300C)}
M0300N  {v(N0300N)}
M0301A  {v(N0301A)}
M0301B  {v(N0301B)}
M0301C  {v(N0301C)}
M0301N  {v(N0301N)}
M0302A  {v(N0302A)}
M0302B  {v(N0302B)}
M0302C  {v(N0302C)}
M0302N  {v(N0302N)}
M0303A  {v(N0303A)}
M0303B  {v(N0303B)}
M0303C  {v(N0303C)}
M0303N  {v(N0303N)}
M0304A  {v(N0304A)}
M0304B  {v(N0304B)}
M0304C  {v(N0304C)}
M0304N  {v(N0304N)}
M0305A  {v(N0305A)}
M0305B  {v(N0305B)}
M0305C  {v(N0305C)}
M0305N  {v(N0305N)}
M0306A  {v(N0306A)}
M0306B  {v(N0306B)}
M0306C  {v(N0306C)}
M0306N  {v(N0306N)}
M0307A  {v(N0307A)}
M0307B  {v(N0307B)}
M0307C  {v(N0307C)}
M0307N  {v(N0307N)}
M0308A  {v(N0308A)}
M0308B  {v(N0308B)}
M0308C  {v(N0308C)}
M0308N  {v(N0308N)}
M0309A  {v(N0309A)}
M0309B  {v(N0309B)}
M0309C  {v(N0309C)}
M0309N  {v(N0309N)}
M0310A  {v(N0310A)}
M0310B  {v(N0310B)}
M0310C  {v(N0310C)}
M0310N  {v(N0310N)}
M0311A  {v(N0311A)}
M0311B  {v(N0311B)}
M0311C  {v(N0311C)}
M0311N  {v(N0311N)}
M0312A  {v(N0312A)}
M0312B  {v(N0312B)}
M0312C  {v(N0312C)}
M0312N  {v(N0312N)}
M0313A  {v(N0313A)}
M0313B  {v(N0313B)}
M0313C  {v(N0313C)}
M0313N  {v(N0313N)}
M0314A  {v(N0314A)}
M0314B  {v(N0314B)}
M0314C  {v(N0314C)}
M0314N  {v(N0314N)}
M0315A  {v(N0315A)}
M0315B  {v(N0315B)}
M0315C  {v(N0315C)}
M0315N  {v(N0315N)}
M0316A  {v(N0316A)}
M0316B  {v(N0316B)}
M0316C  {v(N0316C)}
M0316N  {v(N0316N)}
M0317A  {v(N0317A)}
M0317B  {v(N0317B)}
M0317C  {v(N0317C)}
M0317N  {v(N0317N)}
M0318A  {v(N0318A)}
M0318B  {v(N0318B)}
M0318C  {v(N0318C)}
M0318N  {v(N0318N)}
M0319A  {v(N0319A)}
M0319B  {v(N0319B)}
M0319C  {v(N0319C)}
M0319N  {v(N0319N)}
M0320A  {v(N0320A)}
M0320B  {v(N0320B)}
M0320C  {v(N0320C)}
M0320N  {v(N0320N)}
M0321A  {v(N0321A)}
M0321B  {v(N0321B)}
M0321C  {v(N0321C)}
M0321N  {v(N0321N)}
M0322A  {v(N0322A)}
M0322B  {v(N0322B)}
M0322C  {v(N0322C)}
M0322N  {v(N0322N)}
M0323A  {v(N0323A)}
M0323B  {v(N0323B)}
M0323C  {v(N0323C)}
M0323N  {v(N0323N)}
M0324A  {v(N0324A)}
M0324B  {v(N0324B)}
M0324C  {v(N0324C)}
M0324N  {v(N0324N)}
M0325A  {v(N0325A)}
M0325B  {v(N0325B)}
M0325C  {v(N0325C)}
M0325N  {v(N0325N)}
M0326A  {v(N0326A)}
M0326B  {v(N0326B)}
M0326C  {v(N0326C)}
M0326N  {v(N0326N)}
M0327A  {v(N0327A)}
M0327B  {v(N0327B)}
M0327C  {v(N0327C)}
M0327N  {v(N0327N)}
M0328A  {v(N0328A)}
M0328B  {v(N0328B)}
M0328C  {v(N0328C)}
M0328N  {v(N0328N)}
M0329A  {v(N0329A)}
M0329B  {v(N0329B)}
M0329C  {v(N0329C)}
M0329N  {v(N0329N)}
M0596A  {v(N0596A)}
M0596B  {v(N0596B)}
M0596C  {v(N0596C)}
M0596N  {v(N0596N)}
M0597A  {v(N0597A)}
M0597B  {v(N0597B)}
M0597C  {v(N0597C)}
M0597N  {v(N0597N)}
M0598A  {v(N0598A)}
M0598B  {v(N0598B)}
M0598C  {v(N0598C)}
M0598N  {v(N0598N)}
M0599A  {v(N0599A)}
M0599B  {v(N0599B)}
M0599C  {v(N0599C)}
M0599N  {v(N0599N)}
M0600A  {v(N0600A)}
M0600B  {v(N0600B)}
M0600C  {v(N0600C)}
M0600N  {v(N0600N)}
M0601A  {v(N0601A)}
M0601B  {v(N0601B)}
M0601C  {v(N0601C)}
M0601N  {v(N0601N)}
M0602A  {v(N0602A)}
M0602B  {v(N0602B)}
M0602C  {v(N0602C)}
M0602N  {v(N0602N)}
M0603A  {v(N0603A)}
M0603B  {v(N0603B)}
M0603C  {v(N0603C)}
M0603N  {v(N0603N)}
M0604A  {v(N0604A)}
M0604B  {v(N0604B)}
M0604C  {v(N0604C)}
M0604N  {v(N0604N)}
M0605A  {v(N0605A)}
M0605B  {v(N0605B)}
M0605C  {v(N0605C)}
M0605N  {v(N0605N)}
M0606A  {v(N0606A)}
M0606B  {v(N0606B)}
M0606C  {v(N0606C)}
M0606N  {v(N0606N)}
M0607A  {v(N0607A)}
M0607B  {v(N0607B)}
M0607C  {v(N0607C)}
M0607N  {v(N0607N)}
M0608A  {v(N0608A)}
M0608B  {v(N0608B)}
M0608C  {v(N0608C)}
M0608N  {v(N0608N)}
M0609A  {v(N0609A)}
M0609B  {v(N0609B)}
M0609C  {v(N0609C)}
M0609N  {v(N0609N)}
M0610A  {v(N0610A)}
M0610B  {v(N0610B)}
M0610C  {v(N0610C)}
M0610N  {v(N0610N)}
M0611A  {v(N0611A)}
M0611B  {v(N0611B)}
M0611C  {v(N0611C)}
M0611N  {v(N0611N)}
M0612A  {v(N0612A)}
M0612B  {v(N0612B)}
M0612C  {v(N0612C)}
M0612N  {v(N0612N)}
M0613A  {v(N0613A)}
M0613B  {v(N0613B)}
M0613C  {v(N0613C)}
M0613N  {v(N0613N)}
M0614A  {v(N0614A)}
M0614B  {v(N0614B)}
M0614C  {v(N0614C)}
M0614N  {v(N0614N)}
M0615A  {v(N0615A)}
M0615B  {v(N0615B)}
M0615C  {v(N0615C)}
M0615N  {v(N0615N)}
M0616A  {v(N0616A)}
M0616B  {v(N0616B)}
M0616C  {v(N0616C)}
M0616N  {v(N0616N)}
M0617A  {v(N0617A)}
M0617B  {v(N0617B)}
M0617C  {v(N0617C)}
M0617N  {v(N0617N)}
M0618A  {v(N0618A)}
M0618B  {v(N0618B)}
M0618C  {v(N0618C)}
M0618N  {v(N0618N)}
M0619A  {v(N0619A)}
M0619B  {v(N0619B)}
M0619C  {v(N0619C)}
M0619N  {v(N0619N)}
M0620A  {v(N0620A)}
M0620B  {v(N0620B)}
M0620C  {v(N0620C)}
M0620N  {v(N0620N)}
M0621A  {v(N0621A)}
M0621B  {v(N0621B)}
M0621C  {v(N0621C)}
M0621N  {v(N0621N)}
M0622A  {v(N0622A)}
M0622B  {v(N0622B)}
M0622C  {v(N0622C)}
M0622N  {v(N0622N)}
M0623A  {v(N0623A)}
M0623B  {v(N0623B)}
M0623C  {v(N0623C)}
M0623N  {v(N0623N)}
M0624A  {v(N0624A)}
M0624B  {v(N0624B)}
M0624C  {v(N0624C)}
M0624N  {v(N0624N)}
M0625A  {v(N0625A)}
M0625B  {v(N0625B)}
M0625C  {v(N0625C)}
M0625N  {v(N0625N)}
M0626A  {v(N0626A)}
M0626B  {v(N0626B)}
M0626C  {v(N0626C)}
M0626N  {v(N0626N)}
M0627A  {v(N0627A)}
M0627B  {v(N0627B)}
M0627C  {v(N0627C)}
M0627N  {v(N0627N)}
M0628A  {v(N0628A)}
M0628B  {v(N0628B)}
M0628C  {v(N0628C)}
M0628N  {v(N0628N)}
M0629A  {v(N0629A)}
M0629B  {v(N0629B)}
M0629C  {v(N0629C)}
M0629N  {v(N0629N)}
M0630A  {v(N0630A)}
M0630B  {v(N0630B)}
M0630C  {v(N0630C)}
M0630N  {v(N0630N)}
M0631A  {v(N0631A)}
M0631B  {v(N0631B)}
M0631C  {v(N0631C)}
M0631N  {v(N0631N)}
M0632A  {v(N0632A)}
M0632B  {v(N0632B)}
M0632C  {v(N0632C)}
M0632N  {v(N0632N)}
M0633A  {v(N0633A)}
M0633B  {v(N0633B)}
M0633C  {v(N0633C)}
M0633N  {v(N0633N)}
M0634A  {v(N0634A)}
M0634B  {v(N0634B)}
M0634C  {v(N0634C)}
M0634N  {v(N0634N)}
M0635A  {v(N0635A)}
M0635B  {v(N0635B)}
M0635C  {v(N0635C)}
M0635N  {v(N0635N)}
M0636A  {v(N0636A)}
M0636B  {v(N0636B)}
M0636C  {v(N0636C)}
M0636N  {v(N0636N)}
M0637A  {v(N0637A)}
M0637B  {v(N0637B)}
M0637C  {v(N0637C)}
M0637N  {v(N0637N)}
M0638A  {v(N0638A)}
M0638B  {v(N0638B)}
M0638C  {v(N0638C)}
M0638N  {v(N0638N)}
M0639A  {v(N0639A)}
M0639B  {v(N0639B)}
M0639C  {v(N0639C)}
M0639N  {v(N0639N)}
M0640A  {v(N0640A)}
M0640B  {v(N0640B)}
M0640C  {v(N0640C)}
M0640N  {v(N0640N)}
M0641A  {v(N0641A)}
M0641B  {v(N0641B)}
M0641C  {v(N0641C)}
M0641N  {v(N0641N)}
M0650A  {v(N0650A)}
M0650B  {v(N0650B)}
M0650C  {v(N0650C)}
M0650N  {v(N0650N)}
M0651A  {v(N0651A)}
M0651B  {v(N0651B)}
M0651C  {v(N0651C)}
M0651N  {v(N0651N)}
M0652A  {v(N0652A)}
M0652B  {v(N0652B)}
M0652C  {v(N0652C)}
M0652N  {v(N0652N)}
M0653A  {v(N0653A)}
M0653B  {v(N0653B)}
M0653C  {v(N0653C)}
M0653N  {v(N0653N)}
M0654A  {v(N0654A)}
M0654B  {v(N0654B)}
M0654C  {v(N0654C)}
M0654N  {v(N0654N)}
M0655A  {v(N0655A)}
M0655B  {v(N0655B)}
M0655C  {v(N0655C)}
M0655N  {v(N0655N)}
M0656A  {v(N0656A)}
M0656B  {v(N0656B)}
M0656C  {v(N0656C)}
M0656N  {v(N0656N)}
M0657A  {v(N0657A)}
M0657B  {v(N0657B)}
M0657C  {v(N0657C)}
M0657N  {v(N0657N)}
M0658A  {v(N0658A)}
M0658B  {v(N0658B)}
M0658C  {v(N0658C)}
M0658N  {v(N0658N)}
M0659A  {v(N0659A)}
M0659B  {v(N0659B)}
M0659C  {v(N0659C)}
M0659N  {v(N0659N)}
M0660A  {v(N0660A)}
M0660B  {v(N0660B)}
M0660C  {v(N0660C)}
M0660N  {v(N0660N)}
M0661A  {v(N0661A)}
M0661B  {v(N0661B)}
M0661C  {v(N0661C)}
M0661N  {v(N0661N)}
M0662A  {v(N0662A)}
M0662B  {v(N0662B)}
M0662C  {v(N0662C)}
M0662N  {v(N0662N)}
M0663A  {v(N0663A)}
M0663B  {v(N0663B)}
M0663C  {v(N0663C)}
M0663N  {v(N0663N)}
M0664A  {v(N0664A)}
M0664B  {v(N0664B)}
M0664C  {v(N0664C)}
M0664N  {v(N0664N)}
M0665A  {v(N0665A)}
M0665B  {v(N0665B)}
M0665C  {v(N0665C)}
M0665N  {v(N0665N)}
M0666A  {v(N0666A)}
M0666B  {v(N0666B)}
M0666C  {v(N0666C)}
M0666N  {v(N0666N)}
M0667A  {v(N0667A)}
M0667B  {v(N0667B)}
M0667C  {v(N0667C)}
M0667N  {v(N0667N)}
M0668A  {v(N0668A)}
M0668B  {v(N0668B)}
M0668C  {v(N0668C)}
M0668N  {v(N0668N)}
M0669A  {v(N0669A)}
M0669B  {v(N0669B)}
M0669C  {v(N0669C)}
M0669N  {v(N0669N)}
M0670A  {v(N0670A)}
M0670B  {v(N0670B)}
M0670C  {v(N0670C)}
M0670N  {v(N0670N)}
M0671A  {v(N0671A)}
M0671B  {v(N0671B)}
M0671C  {v(N0671C)}
M0671N  {v(N0671N)}
M0672A  {v(N0672A)}
M0672B  {v(N0672B)}
M0672C  {v(N0672C)}
M0672N  {v(N0672N)}
M0673A  {v(N0673A)}
M0673B  {v(N0673B)}
M0673C  {v(N0673C)}
M0673N  {v(N0673N)}
M0674A  {v(N0674A)}
M0674B  {v(N0674B)}
M0674C  {v(N0674C)}
M0674N  {v(N0674N)}
M0675A  {v(N0675A)}
M0675B  {v(N0675B)}
M0675C  {v(N0675C)}
M0675N  {v(N0675N)}
M0677A  {v(N0677A)}
M0677B  {v(N0677B)}
M0677C  {v(N0677C)}
M0677N  {v(N0677N)}
M0678A  {v(N0678A)}
M0678B  {v(N0678B)}
M0678C  {v(N0678C)}
M0678N  {v(N0678N)}
M0695A  {v(N0695A)}
M0695B  {v(N0695B)}
M0695C  {v(N0695C)}
M0695N  {v(N0695N)}
M0696A  {v(N0696A)}
M0696B  {v(N0696B)}
M0696C  {v(N0696C)}
M0696N  {v(N0696N)}
M0697A  {v(N0697A)}
M0697B  {v(N0697B)}
M0697C  {v(N0697C)}
M0697N  {v(N0697N)}
M0698A  {v(N0698A)}
M0698B  {v(N0698B)}
M0698C  {v(N0698C)}
M0698N  {v(N0698N)}
M0699A  {v(N0699A)}
M0699B  {v(N0699B)}
M0699C  {v(N0699C)}
M0699N  {v(N0699N)}
M0700A  {v(N0700A)}
M0700B  {v(N0700B)}
M0700C  {v(N0700C)}
M0700N  {v(N0700N)}
M0701A  {v(N0701A)}
M0701B  {v(N0701B)}
M0701C  {v(N0701C)}
M0701N  {v(N0701N)}
M0702A  {v(N0702A)}
M0702B  {v(N0702B)}
M0702C  {v(N0702C)}
M0702N  {v(N0702N)}
M0703A  {v(N0703A)}
M0703B  {v(N0703B)}
M0703C  {v(N0703C)}
M0703N  {v(N0703N)}
M0704A  {v(N0704A)}
M0704B  {v(N0704B)}
M0704C  {v(N0704C)}
M0704N  {v(N0704N)}
M0705A  {v(N0705A)}
M0705B  {v(N0705B)}
M0705C  {v(N0705C)}
M0705N  {v(N0705N)}
M0706A  {v(N0706A)}
M0706B  {v(N0706B)}
M0706C  {v(N0706C)}
M0706N  {v(N0706N)}
M0707A  {v(N0707A)}
M0707B  {v(N0707B)}
M0707C  {v(N0707C)}
M0707N  {v(N0707N)}
M0708A  {v(N0708A)}
M0708B  {v(N0708B)}
M0708C  {v(N0708C)}
M0708N  {v(N0708N)}
M0709A  {v(N0709A)}
M0709B  {v(N0709B)}
M0709C  {v(N0709C)}
M0709N  {v(N0709N)}
M0710A  {v(N0710A)}
M0710B  {v(N0710B)}
M0710C  {v(N0710C)}
M0710N  {v(N0710N)}
M0711A  {v(N0711A)}
M0711B  {v(N0711B)}
M0711C  {v(N0711C)}
M0711N  {v(N0711N)}
M0712A  {v(N0712A)}
M0712B  {v(N0712B)}
M0712C  {v(N0712C)}
M0712N  {v(N0712N)}
M0713A  {v(N0713A)}
M0713B  {v(N0713B)}
M0713C  {v(N0713C)}
M0713N  {v(N0713N)}
M0714A  {v(N0714A)}
M0714B  {v(N0714B)}
M0714C  {v(N0714C)}
M0714N  {v(N0714N)}
M0715A  {v(N0715A)}
M0715B  {v(N0715B)}
M0715C  {v(N0715C)}
M0715N  {v(N0715N)}
M0716A  {v(N0716A)}
M0716B  {v(N0716B)}
M0716C  {v(N0716C)}
M0716N  {v(N0716N)}
M0717A  {v(N0717A)}
M0717B  {v(N0717B)}
M0717C  {v(N0717C)}
M0717N  {v(N0717N)}
M0718A  {v(N0718A)}
M0718B  {v(N0718B)}
M0718C  {v(N0718C)}
M0718N  {v(N0718N)}
M0719A  {v(N0719A)}
M0719B  {v(N0719B)}
M0719C  {v(N0719C)}
M0719N  {v(N0719N)}
M0720A  {v(N0720A)}
M0720B  {v(N0720B)}
M0720C  {v(N0720C)}
M0720N  {v(N0720N)}
M0721A  {v(N0721A)}
M0721B  {v(N0721B)}
M0721C  {v(N0721C)}
M0721N  {v(N0721N)}
M0722A  {v(N0722A)}
M0722B  {v(N0722B)}
M0722C  {v(N0722C)}
M0722N  {v(N0722N)}
M0723A  {v(N0723A)}
M0723B  {v(N0723B)}
M0723C  {v(N0723C)}
M0723N  {v(N0723N)}
M0724A  {v(N0724A)}
M0724B  {v(N0724B)}
M0724C  {v(N0724C)}
M0724N  {v(N0724N)}
M0725A  {v(N0725A)}
M0725B  {v(N0725B)}
M0725C  {v(N0725C)}
M0725N  {v(N0725N)}
M0726A  {v(N0726A)}
M0726B  {v(N0726B)}
M0726C  {v(N0726C)}
M0726N  {v(N0726N)}
M0727A  {v(N0727A)}
M0727B  {v(N0727B)}
M0727C  {v(N0727C)}
M0727N  {v(N0727N)}
M0728A  {v(N0728A)}
M0728B  {v(N0728B)}
M0728C  {v(N0728C)}
M0728N  {v(N0728N)}
M0729A  {v(N0729A)}
M0729B  {v(N0729B)}
M0729C  {v(N0729C)}
M0729N  {v(N0729N)}
M0730A  {v(N0730A)}
M0730B  {v(N0730B)}
M0730C  {v(N0730C)}
M0730N  {v(N0730N)}
M0731A  {v(N0731A)}
M0731B  {v(N0731B)}
M0731C  {v(N0731C)}
M0731N  {v(N0731N)}
M0732A  {v(N0732A)}
M0732B  {v(N0732B)}
M0732C  {v(N0732C)}
M0732N  {v(N0732N)}
M0733A  {v(N0733A)}
M0733B  {v(N0733B)}
M0733C  {v(N0733C)}
M0733N  {v(N0733N)}
M0734A  {v(N0734A)}
M0734B  {v(N0734B)}
M0734C  {v(N0734C)}
M0734N  {v(N0734N)}
M0735A  {v(N0735A)}
M0735B  {v(N0735B)}
M0735C  {v(N0735C)}
M0735N  {v(N0735N)}
M0736A  {v(N0736A)}
M0736B  {v(N0736B)}
M0736C  {v(N0736C)}
M0736N  {v(N0736N)}
M0737A  {v(N0737A)}
M0737B  {v(N0737B)}
M0737C  {v(N0737C)}
M0737N  {v(N0737N)}
M0738A  {v(N0738A)}
M0738B  {v(N0738B)}
M0738C  {v(N0738C)}
M0738N  {v(N0738N)}
M0739A  {v(N0739A)}
M0739B  {v(N0739B)}
M0739C  {v(N0739C)}
M0739N  {v(N0739N)}
M0750A  {v(N0750A)}
M0750B  {v(N0750B)}
M0750C  {v(N0750C)}
M0750N  {v(N0750N)}
M0751A  {v(N0751A)}
M0751B  {v(N0751B)}
M0751C  {v(N0751C)}
M0751N  {v(N0751N)}
M0752A  {v(N0752A)}
M0752B  {v(N0752B)}
M0752C  {v(N0752C)}
M0752N  {v(N0752N)}
M0753A  {v(N0753A)}
M0753B  {v(N0753B)}
M0753C  {v(N0753C)}
M0753N  {v(N0753N)}
M0754A  {v(N0754A)}
M0754B  {v(N0754B)}
M0754C  {v(N0754C)}
M0754N  {v(N0754N)}
M0755A  {v(N0755A)}
M0755B  {v(N0755B)}
M0755C  {v(N0755C)}
M0755N  {v(N0755N)}
M0756A  {v(N0756A)}
M0756B  {v(N0756B)}
M0756C  {v(N0756C)}
M0756N  {v(N0756N)}
M0757A  {v(N0757A)}
M0757B  {v(N0757B)}
M0757C  {v(N0757C)}
M0757N  {v(N0757N)}
M0758A  {v(N0758A)}
M0758B  {v(N0758B)}
M0758C  {v(N0758C)}
M0758N  {v(N0758N)}
M0759A  {v(N0759A)}
M0759B  {v(N0759B)}
M0759C  {v(N0759C)}
M0759N  {v(N0759N)}
M0760A  {v(N0760A)}
M0760B  {v(N0760B)}
M0760C  {v(N0760C)}
M0760N  {v(N0760N)}
M0827A  {v(N0827A)}
M0827B  {v(N0827B)}
M0827C  {v(N0827C)}
M0827N  {v(N0827N)}
M0828A  {v(N0828A)}
M0828B  {v(N0828B)}
M0828C  {v(N0828C)}
M0828N  {v(N0828N)}
M0829A  {v(N0829A)}
M0829B  {v(N0829B)}
M0829C  {v(N0829C)}
M0829N  {v(N0829N)}
M0830A  {v(N0830A)}
M0830B  {v(N0830B)}
M0830C  {v(N0830C)}
M0830N  {v(N0830N)}
M0831A  {v(N0831A)}
M0831B  {v(N0831B)}
M0831C  {v(N0831C)}
M0831N  {v(N0831N)}
M0832A  {v(N0832A)}
M0832B  {v(N0832B)}
M0832C  {v(N0832C)}
M0832N  {v(N0832N)}
M0833A  {v(N0833A)}
M0833B  {v(N0833B)}
M0833C  {v(N0833C)}
M0833N  {v(N0833N)}
M0834A  {v(N0834A)}
M0834B  {v(N0834B)}
M0834C  {v(N0834C)}
M0834N  {v(N0834N)}
M0835A  {v(N0835A)}
M0835B  {v(N0835B)}
M0835C  {v(N0835C)}
M0835N  {v(N0835N)}
M0836A  {v(N0836A)}
M0836B  {v(N0836B)}
M0836C  {v(N0836C)}
M0836N  {v(N0836N)}
M0837A  {v(N0837A)}
M0837B  {v(N0837B)}
M0837C  {v(N0837C)}
M0837N  {v(N0837N)}
M0838A  {v(N0838A)}
M0838B  {v(N0838B)}
M0838C  {v(N0838C)}
M0838N  {v(N0838N)}
M0839A  {v(N0839A)}
M0839B  {v(N0839B)}
M0839C  {v(N0839C)}
M0839N  {v(N0839N)}
M0840A  {v(N0840A)}
M0840B  {v(N0840B)}
M0840C  {v(N0840C)}
M0840N  {v(N0840N)}
M0841A  {v(N0841A)}
M0841B  {v(N0841B)}
M0841C  {v(N0841C)}
M0841N  {v(N0841N)}
M0842A  {v(N0842A)}
M0842B  {v(N0842B)}
M0842C  {v(N0842C)}
M0842N  {v(N0842N)}
M0843A  {v(N0843A)}
M0843B  {v(N0843B)}
M0843C  {v(N0843C)}
M0843N  {v(N0843N)}
M0844A  {v(N0844A)}
M0844B  {v(N0844B)}
M0844C  {v(N0844C)}
M0844N  {v(N0844N)}
M0845A  {v(N0845A)}
M0845B  {v(N0845B)}
M0845C  {v(N0845C)}
M0845N  {v(N0845N)}
M0846A  {v(N0846A)}
M0846B  {v(N0846B)}
M0846C  {v(N0846C)}
M0846N  {v(N0846N)}
M0847A  {v(N0847A)}
M0847B  {v(N0847B)}
M0847C  {v(N0847C)}
M0847N  {v(N0847N)}
M0848A  {v(N0848A)}
M0848B  {v(N0848B)}
M0848C  {v(N0848C)}
M0848N  {v(N0848N)}
M0849A  {v(N0849A)}
M0849B  {v(N0849B)}
M0849C  {v(N0849C)}
M0849N  {v(N0849N)}
M0850A  {v(N0850A)}
M0850B  {v(N0850B)}
M0850C  {v(N0850C)}
M0850N  {v(N0850N)}
M0851A  {v(N0851A)}
M0851B  {v(N0851B)}
M0851C  {v(N0851C)}
M0851N  {v(N0851N)}
M0852A  {v(N0852A)}
M0852B  {v(N0852B)}
M0852C  {v(N0852C)}
M0852N  {v(N0852N)}
M0853A  {v(N0853A)}
M0853B  {v(N0853B)}
M0853C  {v(N0853C)}
M0853N  {v(N0853N)}
M0854A  {v(N0854A)}
M0854B  {v(N0854B)}
M0854C  {v(N0854C)}
M0854N  {v(N0854N)}
M0855A  {v(N0855A)}
M0855B  {v(N0855B)}
M0855C  {v(N0855C)}
M0855N  {v(N0855N)}
M0856A  {v(N0856A)}
M0856B  {v(N0856B)}
M0856C  {v(N0856C)}
M0856N  {v(N0856N)}
M0857A  {v(N0857A)}
M0857B  {v(N0857B)}
M0857C  {v(N0857C)}
M0857N  {v(N0857N)}
M0858A  {v(N0858A)}
M0858B  {v(N0858B)}
M0858C  {v(N0858C)}
M0858N  {v(N0858N)}
M0859A  {v(N0859A)}
M0859B  {v(N0859B)}
M0859C  {v(N0859C)}
M0859N  {v(N0859N)}
M0860A  {v(N0860A)}
M0860B  {v(N0860B)}
M0860C  {v(N0860C)}
M0860N  {v(N0860N)}
M0861A  {v(N0861A)}
M0861B  {v(N0861B)}
M0861C  {v(N0861C)}
M0861N  {v(N0861N)}
M0862A  {v(N0862A)}
M0862B  {v(N0862B)}
M0862C  {v(N0862C)}
M0862N  {v(N0862N)}
M0863A  {v(N0863A)}
M0863B  {v(N0863B)}
M0863C  {v(N0863C)}
M0863N  {v(N0863N)}
M0864A  {v(N0864A)}
M0864B  {v(N0864B)}
M0864C  {v(N0864C)}
M0864N  {v(N0864N)}
M0865A  {v(N0865A)}
M0865B  {v(N0865B)}
M0865C  {v(N0865C)}
M0865N  {v(N0865N)}
M0866A  {v(N0866A)}
M0866B  {v(N0866B)}
M0866C  {v(N0866C)}
M0866N  {v(N0866N)}
M0867A  {v(N0867A)}
M0867B  {v(N0867B)}
M0867C  {v(N0867C)}
M0867N  {v(N0867N)}
M0868A  {v(N0868A)}
M0868B  {v(N0868B)}
M0868C  {v(N0868C)}
M0868N  {v(N0868N)}
M0869A  {v(N0869A)}
M0869B  {v(N0869B)}
M0869C  {v(N0869C)}
M0869N  {v(N0869N)}
M0870A  {v(N0870A)}
M0870B  {v(N0870B)}
M0870C  {v(N0870C)}
M0870N  {v(N0870N)}
M0871A  {v(N0871A)}
M0871B  {v(N0871B)}
M0871C  {v(N0871C)}
M0871N  {v(N0871N)}
M0872A  {v(N0872A)}
M0872B  {v(N0872B)}
M0872C  {v(N0872C)}
M0872N  {v(N0872N)}
M0873A  {v(N0873A)}
M0873B  {v(N0873B)}
M0873C  {v(N0873C)}
M0873N  {v(N0873N)}
M0874A  {v(N0874A)}
M0874B  {v(N0874B)}
M0874C  {v(N0874C)}
M0874N  {v(N0874N)}
M0875A  {v(N0875A)}
M0875B  {v(N0875B)}
M0875C  {v(N0875C)}
M0875N  {v(N0875N)}
M0876A  {v(N0876A)}
M0876B  {v(N0876B)}
M0876C  {v(N0876C)}
M0876N  {v(N0876N)}
M0877A  {v(N0877A)}
M0877B  {v(N0877B)}
M0877C  {v(N0877C)}
M0877N  {v(N0877N)}
M0878A  {v(N0878A)}
M0878B  {v(N0878B)}
M0878C  {v(N0878C)}
M0878N  {v(N0878N)}
M0879A  {v(N0879A)}
M0879B  {v(N0879B)}
M0879C  {v(N0879C)}
M0879N  {v(N0879N)}
M0880A  {v(N0880A)}
M0880B  {v(N0880B)}
M0880C  {v(N0880C)}
M0880N  {v(N0880N)}
M0881A  {v(N0881A)}
M0881B  {v(N0881B)}
M0881C  {v(N0881C)}
M0881N  {v(N0881N)}
M0882A  {v(N0882A)}
M0882B  {v(N0882B)}
M0882C  {v(N0882C)}
M0882N  {v(N0882N)}
M0883A  {v(N0883A)}
M0883B  {v(N0883B)}
M0883C  {v(N0883C)}
M0883N  {v(N0883N)}
M0884A  {v(N0884A)}
M0884B  {v(N0884B)}
M0884C  {v(N0884C)}