BEGIN NEW DATA CASE
C --------------------------------------------------------
C Generated by YALUK DRAW 2.0
C Developed by: Ernesto Pérez G
C eperezg@unal.edu.co
C Universidad Nacional de Colombia
C File Created on: 10/29/2020 7:51:56 PM
C --------------------------------------------------------
C Project Name:test_ESSA
C   
C  dT  >< Tmax >< Xopt >< Copt > 
.5000E-7.2000E-4
  999999       1       1       1       1       0       0       1       0
/MODELS
MODELS
INPUT
M0001A  {v(N0001A)}
M0002A  {v(N0002A)}
M0003A  {v(N0003A)}
M0004A  {v(N0004A)}
M0005A  {v(N0005A)}
M0006A  {v(N0006A)}
M0007A  {v(N0007A)}
M0008A  {v(N0008A)}
M0009A  {v(N0009A)}
M0010A  {v(N0010A)}
M0011A  {v(N0011A)}
M0012A  {v(N0012A)}
M0013A  {v(N0013A)}
M0014A  {v(N0014A)}
M0015A  {v(N0015A)}
M0016A  {v(N0016A)}
M0017A  {v(N0017A)}
M0018A  {v(N0018A)}
M0019A  {v(N0019A)}
M0020A  {v(N0020A)}
M0021A  {v(N0021A)}
M0022A  {v(N0022A)}
M0023A  {v(N0023A)}
M0024A  {v(N0024A)}
M0025A  {v(N0025A)}
M0026A  {v(N0026A)}
M0027A  {v(N0027A)}
M0028A  {v(N0028A)}
M0029A  {v(N0029A)}
M0030A  {v(N0030A)}
M0031A  {v(N0031A)}
M0032A  {v(N0032A)}
M0033A  {v(N0033A)}
M0034A  {v(N0034A)}
M0035A  {v(N0035A)}
M0036A  {v(N0036A)}
M0037A  {v(N0037A)}
M0038A  {v(N0038A)}
M0039A  {v(N0039A)}
M0040A  {v(N0040A)}
M0041A  {v(N0041A)}
M0042A  {v(N0042A)}
M0043A  {v(N0043A)}
M0044A  {v(N0044A)}
M0045A  {v(N0045A)}
M0046A  {v(N0046A)}
M0047A  {v(N0047A)}
M0048A  {v(N0048A)}
M0049A  {v(N0049A)}
M0050A  {v(N0050A)}
M0051A  {v(N0051A)}
M0052A  {v(N0052A)}
M0053A  {v(N0053A)}
M0054A  {v(N0054A)}
M0055A  {v(N0055A)}
M0056A  {v(N0056A)}
M0057A  {v(N0057A)}
M0058A  {v(N0058A)}
M0059A  {v(N0059A)}
M0060A  {v(N0060A)}
M0061A  {v(N0061A)}
M0062A  {v(N0062A)}
M0063A  {v(N0063A)}
M0064A  {v(N0064A)}
M0065A  {v(N0065A)}
M0066A  {v(N0066A)}
M0067A  {v(N0067A)}
M0068A  {v(N0068A)}
M0069A  {v(N0069A)}
M0070A  {v(N0070A)}
M0071A  {v(N0071A)}
M0072A  {v(N0072A)}
M0073A  {v(N0073A)}
M0074A  {v(N0074A)}
M0075A  {v(N0075A)}
M0076A  {v(N0076A)}
M0077A  {v(N0077A)}
M0078A  {v(N0078A)}
M0079A  {v(N0079A)}
M0080A  {v(N0080A)}
M0081A  {v(N0081A)}
M0082A  {v(N0082A)}
M0083A  {v(N0083A)}
M0084A  {v(N0084A)}
M0085A  {v(N0085A)}
M0086A  {v(N0086A)}
M0087A  {v(N0087A)}
M0088A  {v(N0088A)}
M0089A  {v(N0089A)}
M0090A  {v(N0090A)}
M0091A  {v(N0091A)}
M0092A  {v(N0092A)}
M0093A  {v(N0093A)}
M0094A  {v(N0094A)}
M0095A  {v(N0095A)}
M0096A  {v(N0096A)}
M0097A  {v(N0097A)}
M0098A  {v(N0098A)}
M0099A  {v(N0099A)}
M0100A  {v(N0100A)}
M0101A  {v(N0101A)}
M0102A  {v(N0102A)}
M0103A  {v(N0103A)}
M0104A  {v(N0104A)}
M0105A  {v(N0105A)}
M0106A  {v(N0106A)}
M0107A  {v(N0107A)}
M0108A  {v(N0108A)}
M0109A  {v(N0109A)}
M0110A  {v(N0110A)}
M0111A  {v(N0111A)}
M0112A  {v(N0112A)}
M0113A  {v(N0113A)}
M0114A  {v(N0114A)}
M0115A  {v(N0115A)}
M0116A  {v(N0116A)}
M0117A  {v(N0117A)}
M0118A  {v(N0118A)}
M0119A  {v(N0119A)}
M0120A  {v(N0120A)}
M0121A  {v(N0121A)}
M0122A  {v(N0122A)}
M0123A  {v(N0123A)}
M0124A  {v(N0124A)}
M0125A  {v(N0125A)}
M0126A  {v(N0126A)}
M0127A  {v(N0127A)}
M0128A  {v(N0128A)}
M0129A  {v(N0129A)}
M0130A  {v(N0130A)}
M0131A  {v(N0131A)}
M0132A  {v(N0132A)}
M0133A  {v(N0133A)}
M0134A  {v(N0134A)}
M0135A  {v(N0135A)}
M0136A  {v(N0136A)}
M0137A  {v(N0137A)}
M0138A  {v(N0138A)}
M0139A  {v(N0139A)}
M0140A  {v(N0140A)}
M0141A  {v(N0141A)}
M0142A  {v(N0142A)}
M0143A  {v(N0143A)}
M0144A  {v(N0144A)}
M0145A  {v(N0145A)}
M0146A  {v(N0146A)}
M0147A  {v(N0147A)}
M0148A  {v(N0148A)}
M0149A  {v(N0149A)}
M0150A  {v(N0150A)}
M0151A  {v(N0151A)}
M0152A  {v(N0152A)}
M0153A  {v(N0153A)}
M0154A  {v(N0154A)}
M0155A  {v(N0155A)}
M0156A  {v(N0156A)}
M0157A  {v(N0157A)}
M0158A  {v(N0158A)}
M0159A  {v(N0159A)}
M0160A  {v(N0160A)}
M0161A  {v(N0161A)}
M0162A  {v(N0162A)}
M0163A  {v(N0163A)}
M0164A  {v(N0164A)}
M0165A  {v(N0165A)}
M0166A  {v(N0166A)}
M0167A  {v(N0167A)}
M0168A  {v(N0168A)}
M0169A  {v(N0169A)}
M0170A  {v(N0170A)}
M0171A  {v(N0171A)}
M0172A  {v(N0172A)}
M0173A  {v(N0173A)}
M0174A  {v(N0174A)}
M0175A  {v(N0175A)}
M0176A  {v(N0176A)}
M0177A  {v(N0177A)}
M0178A  {v(N0178A)}
M0179A  {v(N0179A)}
M0180A  {v(N0180A)}
M0181A  {v(N0181A)}
M0182A  {v(N0182A)}
M0183A  {v(N0183A)}
M0184A  {v(N0184A)}
M0185A  {v(N0185A)}
M0186A  {v(N0186A)}
M0187A  {v(N0187A)}
M0188A  {v(N0188A)}
M0189A  {v(N0189A)}
M0190A  {v(N0190A)}
M0191A  {v(N0191A)}
M0192A  {v(N0192A)}
M0193A  {v(N0193A)}
M0194A  {v(N0194A)}
M0195A  {v(N0195A)}
M0196A  {v(N0196A)}
M0197A  {v(N0197A)}
M0198A  {v(N0198A)}
M0199A  {v(N0199A)}
M0200A  {v(N0200A)}
M0201A  {v(N0201A)}
M0202A  {v(N0202A)}
OUTPUT
   L0001A
   R0001A
   L0002A
   R0002A
   L0003A
   R0003A
   L0004A
   R0004A
   L0005A
   R0005A
   L0006A
   R0006A
   L0007A
   R0007A
   L0008A
   R0008A
   L0009A
   R0009A
   L0010A
   R0010A
   L0011A
   R0011A
   L0012A
   R0012A
   L0013A
   R0013A
   L0014A
   R0014A
   L0015A
   R0015A
   L0016A
   R0016A
   L0017A
   R0017A
   L0018A
   R0018A
   L0019A
   R0019A
   L0020A
   R0020A
   L0021A
   R0021A
   L0022A
   R0022A
   L0023A
   R0023A
   L0024A
   R0024A
   L0025A
   R0025A
   L0026A
   R0026A
   L0027A
   R0027A
   L0028A
   R0028A
   L0029A
   R0029A
   L0030A
   R0030A
   L0031A
   R0031A
   L0032A
   R0032A
   L0033A
   R0033A
   L0034A
   R0034A
   L0035A
   R0035A
   L0036A
   R0036A
   L0037A
   R0037A
   L0038A
   R0038A
   L0039A
   R0039A
   L0040A
   R0040A
   L0041A
   R0041A
   L0042A
   R0042A
   L0043A
   R0043A
   L0044A
   R0044A
   L0045A
   R0045A
   L0046A
   R0046A
   L0047A
   R0047A
   L0048A
   R0048A
   L0049A
   R0049A
   L0050A
   R0050A
   L0051A
   R0051A
   L0052A
   R0052A
   L0053A
   R0053A
   L0054A
   R0054A
   L0055A
   R0055A
   L0056A
   R0056A
   L0057A
   R0057A
   L0058A
   R0058A
   L0059A
   R0059A
   L0060A
   R0060A
   L0061A
   R0061A
   L0062A
   R0062A
   L0063A
   R0063A
   L0064A
   R0064A
   L0065A
   R0065A
   L0066A
   R0066A
   L0067A
   R0067A
   L0068A
   R0068A
   L0069A
   R0069A
   L0070A
   R0070A
   L0071A
   R0071A
   L0072A
   R0072A
   L0073A
   R0073A
   L0074A
   R0074A
   L0075A
   R0075A
   L0076A
   R0076A
   L0077A
   R0077A
   L0078A
   R0078A
   L0079A
   R0079A
   L0080A
   R0080A
   L0081A
   R0081A
   L0082A
   R0082A
   L0083A
   R0083A
   L0084A
   R0084A
   L0085A
   R0085A
   L0086A
   R0086A
   L0087A
   R0087A
   L0088A
   R0088A
   L0089A
   R0089A
   L0090A
   R0090A
   L0091A
   R0091A
   L0092A
   R0092A
   L0093A
   R0093A
   L0094A
   R0094A
   L0095A
   R0095A
   L0096A
   R0096A
   L0097A
   R0097A
   L0098A
   R0098A
   L0099A
   R0099A
   L0100A
   R0100A
   L0101A
   R0101A
   L0102A
   R0102A
   L0103A
   R0103A
   L0104A
   R0104A
   L0105A
   R0105A
   L0106A
   R0106A
   L0107A
   R0107A
   L0108A
   R0108A
   L0109A
   R0109A
   L0110A
   R0110A
   L0111A
   R0111A
   L0112A
   R0112A
   L0113A
   R0113A
   L0114A
   R0114A
   L0115A
   R0115A
   L0116A
   R0116A
   L0117A
   R0117A
   L0118A
   R0118A
   L0119A
   R0119A
   L0120A
   R0120A
   L0121A
   R0121A
   L0122A
   R0122A
   L0123A
   R0123A
   L0124A
   R0124A
   L0125A
   R0125A
   L0126A
   R0126A
   L0127A
   R0127A
   L0128A
   R0128A
   L0129A
   R0129A
   L0130A
   R0130A
   L0131A
   R0131A
   L0132A
   R0132A
   L0133A
   R0133A
   L0134A
   R0134A
   L0135A
   R0135A
   L0136A
   R0136A
   L0137A
   R0137A
   L0138A
   R0138A
   L0139A
   R0139A
   L0140A
   R0140A
   L0141A
   R0141A
   L0142A
   R0142A
   L0143A
   R0143A
   L0144A
   R0144A
   L0145A
   R0145A
   L0146A
   R0146A
   L0147A
   R0147A
   L0148A
   R0148A
   L0149A
   R0149A
   L0150A
   R0150A
   L0151A
   R0151A
   L0152A
   R0152A
   L0153A
   R0153A
   L0154A
   R0154A
   L0155A
   R0155A
   L0156A
   R0156A
   L0157A
   R0157A
   L0158A
   R0158A
   L0159A
   R0159A
   L0160A
   R0160A
   L0161A
   R0161A
   L0162A
   R0162A
   L0163A
   R0163A
   L0164A
   R0164A
   L0165A
   R0165A
   L0166A
   R0166A
   L0167A
   R0167A
   L0168A
   R0168A
   L0169A
   R0169A
   L0170A
   R0170A
   L0171A
   R0171A
   L0172A
   R0172A
   L0173A
   R0173A
   L0174A
   R0174A
   L0175A
   R0175A
   L0176A
   R0176A
   L0177A
   R0177A
   L0178A
   R0178A
   L0179A
   R0179A
   L0180A
   R0180A
   L0181A
   R0181A
   L0182A
   R0182A
   L0183A
   R0183A
   L0184A
   R0184A
   L0185A
   R0185A
   L0186A
   R0186A
   L0187A
   R0187A
   L0188A
   R0188A
   L0189A
   R0189A
   L0190A
   R0190A
   L0191A
   R0191A
   L0192A
   R0192A
   L0193A
   R0193A
   L0194A
   R0194A
   L0195A
   R0195A
   L0196A
   R0196A
   L0197A
   R0197A
   L0198A
   R0198A
   L0199A
   R0199A
   L0200A
   R0200A
   L0201A
   R0201A
MODEL Yaluk1
 -- This model is link with ATP by means of a iluminated line characteristic method
 -- It must have four inputs for one single line (Va,Ia,Vb,Ib)
CONST
cond {VAL:1} --num. phases
INPUT
  Va[1..cond]
  Vb[1..cond]
VAR Vfa[1..cond],Vfb[1..cond]
OUTPUT
   Vfa,Vfb
DATA
	No_Lin
MODEL yaluk_f FOREIGN YALUK_DLL_MODEL {ixdata:4, ixin:3, ixout:2, ixvar:200}
EXEC -- using the DLL subroutine
  USE yaluk_f AS yaluk_f
    DATA xdata[1..4]:=[timestep,stoptime,cond,No_Lin]
    INPUT xin[1..2*cond+1]:=[t,Va[1..cond],Vb[1..cond]]
  --    HISTORY histdef(xvar[1]):=0
    OUTPUT 	Vfa[1..cond]:=xout[1..cond]
		Vfb[1..cond]:=xout[cond+1..2*cond]
  ENDUSE
  ENDEXEC
ENDMODEL
USE Yaluk1 AS Yaluk0001
INPUT
  Va[1]:=M0001A
  Vb[1]:=M0002A
DATA
  No_Lin:=1
OUTPUT
  L0001A:=Vfa[1]
  R0001A:=Vfb[1]
ENDUSE
USE Yaluk1 AS Yaluk0001
INPUT
  Va[1]:=M0001A
  Vb[1]:=M0003A
DATA
  No_Lin:=2
OUTPUT
  L0002A:=Vfa[1]
  R0002A:=Vfb[1]
ENDUSE
USE Yaluk1 AS Yaluk0001
INPUT
  Va[1]:=M0003A
  Vb[1]:=M0004A
DATA
  No_Lin:=3
OUTPUT
  L0003A:=Vfa[1]
  R0003A:=Vfb[1]
ENDUSE
USE Yaluk1 AS Yaluk0001
INPUT
  Va[1]:=M0004A
  Vb[1]:=M0005A
DATA
  No_Lin:=4
OUTPUT
  L0004A:=Vfa[1]
  R0004A:=Vfb[1]
ENDUSE
USE Yaluk1 AS Yaluk0001
INPUT
  Va[1]:=M0005A
  Vb[1]:=M0006A
DATA
  No_Lin:=5
OUTPUT
  L0005A:=Vfa[1]
  R0005A:=Vfb[1]
ENDUSE
USE Yaluk1 AS Yaluk0001
INPUT
  Va[1]:=M0006A
  Vb[1]:=M0007A
DATA
  No_Lin:=6
OUTPUT
  L0006A:=Vfa[1]
  R0006A:=Vfb[1]
ENDUSE
USE Yaluk1 AS Yaluk0001
INPUT
  Va[1]:=M0007A
  Vb[1]:=M0008A
DATA
  No_Lin:=7
OUTPUT
  L0007A:=Vfa[1]
  R0007A:=Vfb[1]
ENDUSE
USE Yaluk1 AS Yaluk0001
INPUT
  Va[1]:=M0008A
  Vb[1]:=M0009A
DATA
  No_Lin:=8
OUTPUT
  L0008A:=Vfa[1]
  R0008A:=Vfb[1]
ENDUSE
USE Yaluk1 AS Yaluk0001
INPUT
  Va[1]:=M0009A
  Vb[1]:=M0010A
DATA
  No_Lin:=9
OUTPUT
  L0009A:=Vfa[1]
  R0009A:=Vfb[1]
ENDUSE
USE Yaluk1 AS Yaluk0001
INPUT
  Va[1]:=M0010A
  Vb[1]:=M0011A
DATA
  No_Lin:=10
OUTPUT
  L0010A:=Vfa[1]
  R0010A:=Vfb[1]
ENDUSE
USE Yaluk1 AS Yaluk0001
INPUT
  Va[1]:=M0011A
  Vb[1]:=M0012A
DATA
  No_Lin:=11
OUTPUT
  L0011A:=Vfa[1]
  R0011A:=Vfb[1]
ENDUSE
USE Yaluk1 AS Yaluk0001
INPUT
  Va[1]:=M0012A
  Vb[1]:=M0013A
DATA
  No_Lin:=12
OUTPUT
  L0012A:=Vfa[1]
  R0012A:=Vfb[1]
ENDUSE
USE Yaluk1 AS Yaluk0001
INPUT
  Va[1]:=M0013A
  Vb[1]:=M0014A
DATA
  No_Lin:=13
OUTPUT
  L0013A:=Vfa[1]
  R0013A:=Vfb[1]
ENDUSE
USE Yaluk1 AS Yaluk0001
INPUT
  Va[1]:=M0014A
  Vb[1]:=M0015A
DATA
  No_Lin:=14
OUTPUT
  L0014A:=Vfa[1]
  R0014A:=Vfb[1]
ENDUSE
USE Yaluk1 AS Yaluk0001
INPUT
  Va[1]:=M0015A
  Vb[1]:=M0016A
DATA
  No_Lin:=15
OUTPUT
  L0015A:=Vfa[1]
  R0015A:=Vfb[1]
ENDUSE
USE Yaluk1 AS Yaluk0001
INPUT
  Va[1]:=M0016A
  Vb[1]:=M0017A
DATA
  No_Lin:=16
OUTPUT
  L0016A:=Vfa[1]
  R0016A:=Vfb[1]
ENDUSE
USE Yaluk1 AS Yaluk0001
INPUT
  Va[1]:=M0017A
  Vb[1]:=M0018A
DATA
  No_Lin:=17
OUTPUT
  L0017A:=Vfa[1]
  R0017A:=Vfb[1]
ENDUSE
USE Yaluk1 AS Yaluk0001
INPUT
  Va[1]:=M0018A
  Vb[1]:=M0019A
DATA
  No_Lin:=18
OUTPUT
  L0018A:=Vfa[1]
  R0018A:=Vfb[1]
ENDUSE
USE Yaluk1 AS Yaluk0001
INPUT
  Va[1]:=M0019A
  Vb[1]:=M0020A
DATA
  No_Lin:=19
OUTPUT
  L0019A:=Vfa[1]
  R0019A:=Vfb[1]
ENDUSE
USE Yaluk1 AS Yaluk0001
INPUT
  Va[1]:=M0020A
  Vb[1]:=M0021A
DATA
  No_Lin:=20
OUTPUT
  L0020A:=Vfa[1]
  R0020A:=Vfb[1]
ENDUSE
USE Yaluk1 AS Yaluk0001
INPUT
  Va[1]:=M0021A
  Vb[1]:=M0022A
DATA
  No_Lin:=21
OUTPUT
  L0021A:=Vfa[1]
  R0021A:=Vfb[1]
ENDUSE
USE Yaluk1 AS Yaluk0001
INPUT
  Va[1]:=M0022A
  Vb[1]:=M0023A
DATA
  No_Lin:=22
OUTPUT
  L0022A:=Vfa[1]
  R0022A:=Vfb[1]
ENDUSE
USE Yaluk1 AS Yaluk0001
INPUT
  Va[1]:=M0023A
  Vb[1]:=M0024A
DATA
  No_Lin:=23
OUTPUT
  L0023A:=Vfa[1]
  R0023A:=Vfb[1]
ENDUSE
USE Yaluk1 AS Yaluk0001
INPUT
  Va[1]:=M0024A
  Vb[1]:=M0025A
DATA
  No_Lin:=24
OUTPUT
  L0024A:=Vfa[1]
  R0024A:=Vfb[1]
ENDUSE
USE Yaluk1 AS Yaluk0001
INPUT
  Va[1]:=M0025A
  Vb[1]:=M0026A
DATA
  No_Lin:=25
OUTPUT
  L0025A:=Vfa[1]
  R0025A:=Vfb[1]
ENDUSE
USE Yaluk1 AS Yaluk0001
INPUT
  Va[1]:=M0026A
  Vb[1]:=M0027A
DATA
  No_Lin:=26
OUTPUT
  L0026A:=Vfa[1]
  R0026A:=Vfb[1]
ENDUSE
USE Yaluk1 AS Yaluk0001
INPUT
  Va[1]:=M0027A
  Vb[1]:=M0028A
DATA
  No_Lin:=27
OUTPUT
  L0027A:=Vfa[1]
  R0027A:=Vfb[1]
ENDUSE
USE Yaluk1 AS Yaluk0001
INPUT
  Va[1]:=M0028A
  Vb[1]:=M0029A
DATA
  No_Lin:=28
OUTPUT
  L0028A:=Vfa[1]
  R0028A:=Vfb[1]
ENDUSE
USE Yaluk1 AS Yaluk0001
INPUT
  Va[1]:=M0029A
  Vb[1]:=M0030A
DATA
  No_Lin:=29
OUTPUT
  L0029A:=Vfa[1]
  R0029A:=Vfb[1]
ENDUSE
USE Yaluk1 AS Yaluk0001
INPUT
  Va[1]:=M0030A
  Vb[1]:=M0031A
DATA
  No_Lin:=30
OUTPUT
  L0030A:=Vfa[1]
  R0030A:=Vfb[1]
ENDUSE
USE Yaluk1 AS Yaluk0001
INPUT
  Va[1]:=M0031A
  Vb[1]:=M0032A
DATA
  No_Lin:=31
OUTPUT
  L0031A:=Vfa[1]
  R0031A:=Vfb[1]
ENDUSE
USE Yaluk1 AS Yaluk0001
INPUT
  Va[1]:=M0032A
  Vb[1]:=M0033A
DATA
  No_Lin:=32
OUTPUT
  L0032A:=Vfa[1]
  R0032A:=Vfb[1]
ENDUSE
USE Yaluk1 AS Yaluk0001
INPUT
  Va[1]:=M0033A
  Vb[1]:=M0034A
DATA
  No_Lin:=33
OUTPUT
  L0033A:=Vfa[1]
  R0033A:=Vfb[1]
ENDUSE
USE Yaluk1 AS Yaluk0001
INPUT
  Va[1]:=M0034A
  Vb[1]:=M0035A
DATA
  No_Lin:=34
OUTPUT
  L0034A:=Vfa[1]
  R0034A:=Vfb[1]
ENDUSE
USE Yaluk1 AS Yaluk0001
INPUT
  Va[1]:=M0036A
  Vb[1]:=M0035A
DATA
  No_Lin:=35
OUTPUT
  L0035A:=Vfa[1]
  R0035A:=Vfb[1]
ENDUSE
USE Yaluk1 AS Yaluk0001
INPUT
  Va[1]:=M0036A
  Vb[1]:=M0037A
DATA
  No_Lin:=36
OUTPUT
  L0036A:=Vfa[1]
  R0036A:=Vfb[1]
ENDUSE
USE Yaluk1 AS Yaluk0001
INPUT
  Va[1]:=M0037A
  Vb[1]:=M0038A
DATA
  No_Lin:=37
OUTPUT
  L0037A:=Vfa[1]
  R0037A:=Vfb[1]
ENDUSE
USE Yaluk1 AS Yaluk0001
INPUT
  Va[1]:=M0038A
  Vb[1]:=M0039A
DATA
  No_Lin:=38
OUTPUT
  L0038A:=Vfa[1]
  R0038A:=Vfb[1]
ENDUSE
USE Yaluk1 AS Yaluk0001
INPUT
  Va[1]:=M0039A
  Vb[1]:=M0040A
DATA
  No_Lin:=39
OUTPUT
  L0039A:=Vfa[1]
  R0039A:=Vfb[1]
ENDUSE
USE Yaluk1 AS Yaluk0001
INPUT
  Va[1]:=M0040A
  Vb[1]:=M0041A
DATA
  No_Lin:=40
OUTPUT
  L0040A:=Vfa[1]
  R0040A:=Vfb[1]
ENDUSE
USE Yaluk1 AS Yaluk0001
INPUT
  Va[1]:=M0041A
  Vb[1]:=M0042A
DATA
  No_Lin:=41
OUTPUT
  L0041A:=Vfa[1]
  R0041A:=Vfb[1]
ENDUSE
USE Yaluk1 AS Yaluk0001
INPUT
  Va[1]:=M0042A
  Vb[1]:=M0043A
DATA
  No_Lin:=42
OUTPUT
  L0042A:=Vfa[1]
  R0042A:=Vfb[1]
ENDUSE
USE Yaluk1 AS Yaluk0001
INPUT
  Va[1]:=M0043A
  Vb[1]:=M0044A
DATA
  No_Lin:=43
OUTPUT
  L0043A:=Vfa[1]
  R0043A:=Vfb[1]
ENDUSE
USE Yaluk1 AS Yaluk0001
INPUT
  Va[1]:=M0044A
  Vb[1]:=M0045A
DATA
  No_Lin:=44
OUTPUT
  L0044A:=Vfa[1]
  R0044A:=Vfb[1]
ENDUSE
USE Yaluk1 AS Yaluk0001
INPUT
  Va[1]:=M0045A
  Vb[1]:=M0046A
DATA
  No_Lin:=45
OUTPUT
  L0045A:=Vfa[1]
  R0045A:=Vfb[1]
ENDUSE
USE Yaluk1 AS Yaluk0001
INPUT
  Va[1]:=M0047A
  Vb[1]:=M0048A
DATA
  No_Lin:=46
OUTPUT
  L0046A:=Vfa[1]
  R0046A:=Vfb[1]
ENDUSE
USE Yaluk1 AS Yaluk0001
INPUT
  Va[1]:=M0048A
  Vb[1]:=M0049A
DATA
  No_Lin:=47
OUTPUT
  L0047A:=Vfa[1]
  R0047A:=Vfb[1]
ENDUSE
USE Yaluk1 AS Yaluk0001
INPUT
  Va[1]:=M0049A
  Vb[1]:=M0050A
DATA
  No_Lin:=48
OUTPUT
  L0048A:=Vfa[1]
  R0048A:=Vfb[1]
ENDUSE
USE Yaluk1 AS Yaluk0001
INPUT
  Va[1]:=M0050A
  Vb[1]:=M0051A
DATA
  No_Lin:=49
OUTPUT
  L0049A:=Vfa[1]
  R0049A:=Vfb[1]
ENDUSE
USE Yaluk1 AS Yaluk0001
INPUT
  Va[1]:=M0051A
  Vb[1]:=M0052A
DATA
  No_Lin:=50
OUTPUT
  L0050A:=Vfa[1]
  R0050A:=Vfb[1]
ENDUSE
USE Yaluk1 AS Yaluk0001
INPUT
  Va[1]:=M0052A
  Vb[1]:=M0053A
DATA
  No_Lin:=51
OUTPUT
  L0051A:=Vfa[1]
  R0051A:=Vfb[1]
ENDUSE
USE Yaluk1 AS Yaluk0001
INPUT
  Va[1]:=M0053A
  Vb[1]:=M0054A
DATA
  No_Lin:=52
OUTPUT
  L0052A:=Vfa[1]
  R0052A:=Vfb[1]
ENDUSE
USE Yaluk1 AS Yaluk0001
INPUT
  Va[1]:=M0054A
  Vb[1]:=M0055A
DATA
  No_Lin:=53
OUTPUT
  L0053A:=Vfa[1]
  R0053A:=Vfb[1]
ENDUSE
USE Yaluk1 AS Yaluk0001
INPUT
  Va[1]:=M0055A
  Vb[1]:=M0056A
DATA
  No_Lin:=54
OUTPUT
  L0054A:=Vfa[1]
  R0054A:=Vfb[1]
ENDUSE
USE Yaluk1 AS Yaluk0001
INPUT
  Va[1]:=M0056A
  Vb[1]:=M0057A
DATA
  No_Lin:=55
OUTPUT
  L0055A:=Vfa[1]
  R0055A:=Vfb[1]
ENDUSE
USE Yaluk1 AS Yaluk0001
INPUT
  Va[1]:=M0057A
  Vb[1]:=M0058A
DATA
  No_Lin:=56
OUTPUT
  L0056A:=Vfa[1]
  R0056A:=Vfb[1]
ENDUSE
USE Yaluk1 AS Yaluk0001
INPUT
  Va[1]:=M0058A
  Vb[1]:=M0059A
DATA
  No_Lin:=57
OUTPUT
  L0057A:=Vfa[1]
  R0057A:=Vfb[1]
ENDUSE
USE Yaluk1 AS Yaluk0001
INPUT
  Va[1]:=M0059A
  Vb[1]:=M0060A
DATA
  No_Lin:=58
OUTPUT
  L0058A:=Vfa[1]
  R0058A:=Vfb[1]
ENDUSE
USE Yaluk1 AS Yaluk0001
INPUT
  Va[1]:=M0060A
  Vb[1]:=M0061A
DATA
  No_Lin:=59
OUTPUT
  L0059A:=Vfa[1]
  R0059A:=Vfb[1]
ENDUSE
USE Yaluk1 AS Yaluk0001
INPUT
  Va[1]:=M0061A
  Vb[1]:=M0062A
DATA
  No_Lin:=60
OUTPUT
  L0060A:=Vfa[1]
  R0060A:=Vfb[1]
ENDUSE
USE Yaluk1 AS Yaluk0001
INPUT
  Va[1]:=M0062A
  Vb[1]:=M0063A
DATA
  No_Lin:=61
OUTPUT
  L0061A:=Vfa[1]
  R0061A:=Vfb[1]
ENDUSE
USE Yaluk1 AS Yaluk0001
INPUT
  Va[1]:=M0063A
  Vb[1]:=M0064A
DATA
  No_Lin:=62
OUTPUT
  L0062A:=Vfa[1]
  R0062A:=Vfb[1]
ENDUSE
USE Yaluk1 AS Yaluk0001
INPUT
  Va[1]:=M0064A
  Vb[1]:=M0065A
DATA
  No_Lin:=63
OUTPUT
  L0063A:=Vfa[1]
  R0063A:=Vfb[1]
ENDUSE
USE Yaluk1 AS Yaluk0001
INPUT
  Va[1]:=M0065A
  Vb[1]:=M0066A
DATA
  No_Lin:=64
OUTPUT
  L0064A:=Vfa[1]
  R0064A:=Vfb[1]
ENDUSE
USE Yaluk1 AS Yaluk0001
INPUT
  Va[1]:=M0066A
  Vb[1]:=M0067A
DATA
  No_Lin:=65
OUTPUT
  L0065A:=Vfa[1]
  R0065A:=Vfb[1]
ENDUSE
USE Yaluk1 AS Yaluk0001
INPUT
  Va[1]:=M0067A
  Vb[1]:=M0068A
DATA
  No_Lin:=66
OUTPUT
  L0066A:=Vfa[1]
  R0066A:=Vfb[1]
ENDUSE
USE Yaluk1 AS Yaluk0001
INPUT
  Va[1]:=M0068A
  Vb[1]:=M0069A
DATA
  No_Lin:=67
OUTPUT
  L0067A:=Vfa[1]
  R0067A:=Vfb[1]
ENDUSE
USE Yaluk1 AS Yaluk0001
INPUT
  Va[1]:=M0069A
  Vb[1]:=M0070A
DATA
  No_Lin:=68
OUTPUT
  L0068A:=Vfa[1]
  R0068A:=Vfb[1]
ENDUSE
USE Yaluk1 AS Yaluk0001
INPUT
  Va[1]:=M0070A
  Vb[1]:=M0071A
DATA
  No_Lin:=69
OUTPUT
  L0069A:=Vfa[1]
  R0069A:=Vfb[1]
ENDUSE
USE Yaluk1 AS Yaluk0001
INPUT
  Va[1]:=M0070A
  Vb[1]:=M0072A
DATA
  No_Lin:=70
OUTPUT
  L0070A:=Vfa[1]
  R0070A:=Vfb[1]
ENDUSE
USE Yaluk1 AS Yaluk0001
INPUT
  Va[1]:=M0047A
  Vb[1]:=M0073A
DATA
  No_Lin:=71
OUTPUT
  L0071A:=Vfa[1]
  R0071A:=Vfb[1]
ENDUSE
USE Yaluk1 AS Yaluk0001
INPUT
  Va[1]:=M0073A
  Vb[1]:=M0074A
DATA
  No_Lin:=72
OUTPUT
  L0072A:=Vfa[1]
  R0072A:=Vfb[1]
ENDUSE
USE Yaluk1 AS Yaluk0001
INPUT
  Va[1]:=M0074A
  Vb[1]:=M0075A
DATA
  No_Lin:=73
OUTPUT
  L0073A:=Vfa[1]
  R0073A:=Vfb[1]
ENDUSE
USE Yaluk1 AS Yaluk0001
INPUT
  Va[1]:=M0075A
  Vb[1]:=M0076A
DATA
  No_Lin:=74
OUTPUT
  L0074A:=Vfa[1]
  R0074A:=Vfb[1]
ENDUSE
USE Yaluk1 AS Yaluk0001
INPUT
  Va[1]:=M0076A
  Vb[1]:=M0077A
DATA
  No_Lin:=75
OUTPUT
  L0075A:=Vfa[1]
  R0075A:=Vfb[1]
ENDUSE
USE Yaluk1 AS Yaluk0001
INPUT
  Va[1]:=M0076A
  Vb[1]:=M0078A
DATA
  No_Lin:=76
OUTPUT
  L0076A:=Vfa[1]
  R0076A:=Vfb[1]
ENDUSE
USE Yaluk1 AS Yaluk0001
INPUT
  Va[1]:=M0078A
  Vb[1]:=M0079A
DATA
  No_Lin:=77
OUTPUT
  L0077A:=Vfa[1]
  R0077A:=Vfb[1]
ENDUSE
USE Yaluk1 AS Yaluk0001
INPUT
  Va[1]:=M0079A
  Vb[1]:=M0080A
DATA
  No_Lin:=78
OUTPUT
  L0078A:=Vfa[1]
  R0078A:=Vfb[1]
ENDUSE
USE Yaluk1 AS Yaluk0001
INPUT
  Va[1]:=M0080A
  Vb[1]:=M0081A
DATA
  No_Lin:=79
OUTPUT
  L0079A:=Vfa[1]
  R0079A:=Vfb[1]
ENDUSE
USE Yaluk1 AS Yaluk0001
INPUT
  Va[1]:=M0081A
  Vb[1]:=M0082A
DATA
  No_Lin:=80
OUTPUT
  L0080A:=Vfa[1]
  R0080A:=Vfb[1]
ENDUSE
USE Yaluk1 AS Yaluk0001
INPUT
  Va[1]:=M0082A
  Vb[1]:=M0083A
DATA
  No_Lin:=81
OUTPUT
  L0081A:=Vfa[1]
  R0081A:=Vfb[1]
ENDUSE
USE Yaluk1 AS Yaluk0001
INPUT
  Va[1]:=M0083A
  Vb[1]:=M0084A
DATA
  No_Lin:=82
OUTPUT
  L0082A:=Vfa[1]
  R0082A:=Vfb[1]
ENDUSE
USE Yaluk1 AS Yaluk0001
INPUT
  Va[1]:=M0084A
  Vb[1]:=M0085A
DATA
  No_Lin:=83
OUTPUT
  L0083A:=Vfa[1]
  R0083A:=Vfb[1]
ENDUSE
USE Yaluk1 AS Yaluk0001
INPUT
  Va[1]:=M0085A
  Vb[1]:=M0086A
DATA
  No_Lin:=84
OUTPUT
  L0084A:=Vfa[1]
  R0084A:=Vfb[1]
ENDUSE
USE Yaluk1 AS Yaluk0001
INPUT
  Va[1]:=M0086A
  Vb[1]:=M0087A
DATA
  No_Lin:=85
OUTPUT
  L0085A:=Vfa[1]
  R0085A:=Vfb[1]
ENDUSE
USE Yaluk1 AS Yaluk0001
INPUT
  Va[1]:=M0087A
  Vb[1]:=M0088A
DATA
  No_Lin:=86
OUTPUT
  L0086A:=Vfa[1]
  R0086A:=Vfb[1]
ENDUSE
USE Yaluk1 AS Yaluk0001
INPUT
  Va[1]:=M0088A
  Vb[1]:=M0089A
DATA
  No_Lin:=87
OUTPUT
  L0087A:=Vfa[1]
  R0087A:=Vfb[1]
ENDUSE
USE Yaluk1 AS Yaluk0001
INPUT
  Va[1]:=M0089A
  Vb[1]:=M0090A
DATA
  No_Lin:=88
OUTPUT
  L0088A:=Vfa[1]
  R0088A:=Vfb[1]
ENDUSE
USE Yaluk1 AS Yaluk0001
INPUT
  Va[1]:=M0090A
  Vb[1]:=M0091A
DATA
  No_Lin:=89
OUTPUT
  L0089A:=Vfa[1]
  R0089A:=Vfb[1]
ENDUSE
USE Yaluk1 AS Yaluk0001
INPUT
  Va[1]:=M0091A
  Vb[1]:=M0092A
DATA
  No_Lin:=90
OUTPUT
  L0090A:=Vfa[1]
  R0090A:=Vfb[1]
ENDUSE
USE Yaluk1 AS Yaluk0001
INPUT
  Va[1]:=M0092A
  Vb[1]:=M0093A
DATA
  No_Lin:=91
OUTPUT
  L0091A:=Vfa[1]
  R0091A:=Vfb[1]
ENDUSE
USE Yaluk1 AS Yaluk0001
INPUT
  Va[1]:=M0093A
  Vb[1]:=M0094A
DATA
  No_Lin:=92
OUTPUT
  L0092A:=Vfa[1]
  R0092A:=Vfb[1]
ENDUSE
USE Yaluk1 AS Yaluk0001
INPUT
  Va[1]:=M0094A
  Vb[1]:=M0095A
DATA
  No_Lin:=93
OUTPUT
  L0093A:=Vfa[1]
  R0093A:=Vfb[1]
ENDUSE
USE Yaluk1 AS Yaluk0001
INPUT
  Va[1]:=M0095A
  Vb[1]:=M0096A
DATA
  No_Lin:=94
OUTPUT
  L0094A:=Vfa[1]
  R0094A:=Vfb[1]
ENDUSE
USE Yaluk1 AS Yaluk0001
INPUT
  Va[1]:=M0096A
  Vb[1]:=M0097A
DATA
  No_Lin:=95
OUTPUT
  L0095A:=Vfa[1]
  R0095A:=Vfb[1]
ENDUSE
USE Yaluk1 AS Yaluk0001
INPUT
  Va[1]:=M0097A
  Vb[1]:=M0098A
DATA
  No_Lin:=96
OUTPUT
  L0096A:=Vfa[1]
  R0096A:=Vfb[1]
ENDUSE
USE Yaluk1 AS Yaluk0001
INPUT
  Va[1]:=M0098A
  Vb[1]:=M0099A
DATA
  No_Lin:=97
OUTPUT
  L0097A:=Vfa[1]
  R0097A:=Vfb[1]
ENDUSE
USE Yaluk1 AS Yaluk0001
INPUT
  Va[1]:=M0099A
  Vb[1]:=M0100A
DATA
  No_Lin:=98
OUTPUT
  L0098A:=Vfa[1]
  R0098A:=Vfb[1]
ENDUSE
USE Yaluk1 AS Yaluk0001
INPUT
  Va[1]:=M0100A
  Vb[1]:=M0101A
DATA
  No_Lin:=99
OUTPUT
  L0099A:=Vfa[1]
  R0099A:=Vfb[1]
ENDUSE
USE Yaluk1 AS Yaluk0001
INPUT
  Va[1]:=M0101A
  Vb[1]:=M0102A
DATA
  No_Lin:=100
OUTPUT
  L0100A:=Vfa[1]
  R0100A:=Vfb[1]
ENDUSE
USE Yaluk1 AS Yaluk0001
INPUT
  Va[1]:=M0102A
  Vb[1]:=M0103A
DATA
  No_Lin:=101
OUTPUT
  L0101A:=Vfa[1]
  R0101A:=Vfb[1]
ENDUSE
USE Yaluk1 AS Yaluk0001
INPUT
  Va[1]:=M0103A
  Vb[1]:=M0104A
DATA
  No_Lin:=102
OUTPUT
  L0102A:=Vfa[1]
  R0102A:=Vfb[1]
ENDUSE
USE Yaluk1 AS Yaluk0001
INPUT
  Va[1]:=M0104A
  Vb[1]:=M0105A
DATA
  No_Lin:=103
OUTPUT
  L0103A:=Vfa[1]
  R0103A:=Vfb[1]
ENDUSE
USE Yaluk1 AS Yaluk0001
INPUT
  Va[1]:=M0105A
  Vb[1]:=M0106A
DATA
  No_Lin:=104
OUTPUT
  L0104A:=Vfa[1]
  R0104A:=Vfb[1]
ENDUSE
USE Yaluk1 AS Yaluk0001
INPUT
  Va[1]:=M0106A
  Vb[1]:=M0107A
DATA
  No_Lin:=105
OUTPUT
  L0105A:=Vfa[1]
  R0105A:=Vfb[1]
ENDUSE
USE Yaluk1 AS Yaluk0001
INPUT
  Va[1]:=M0107A
  Vb[1]:=M0108A
DATA
  No_Lin:=106
OUTPUT
  L0106A:=Vfa[1]
  R0106A:=Vfb[1]
ENDUSE
USE Yaluk1 AS Yaluk0001
INPUT
  Va[1]:=M0108A
  Vb[1]:=M0109A
DATA
  No_Lin:=107
OUTPUT
  L0107A:=Vfa[1]
  R0107A:=Vfb[1]
ENDUSE
USE Yaluk1 AS Yaluk0001
INPUT
  Va[1]:=M0109A
  Vb[1]:=M0110A
DATA
  No_Lin:=108
OUTPUT
  L0108A:=Vfa[1]
  R0108A:=Vfb[1]
ENDUSE
USE Yaluk1 AS Yaluk0001
INPUT
  Va[1]:=M0110A
  Vb[1]:=M0111A
DATA
  No_Lin:=109
OUTPUT
  L0109A:=Vfa[1]
  R0109A:=Vfb[1]
ENDUSE
USE Yaluk1 AS Yaluk0001
INPUT
  Va[1]:=M0111A
  Vb[1]:=M0112A
DATA
  No_Lin:=110
OUTPUT
  L0110A:=Vfa[1]
  R0110A:=Vfb[1]
ENDUSE
USE Yaluk1 AS Yaluk0001
INPUT
  Va[1]:=M0112A
  Vb[1]:=M0113A
DATA
  No_Lin:=111
OUTPUT
  L0111A:=Vfa[1]
  R0111A:=Vfb[1]
ENDUSE
USE Yaluk1 AS Yaluk0001
INPUT
  Va[1]:=M0113A
  Vb[1]:=M0114A
DATA
  No_Lin:=112
OUTPUT
  L0112A:=Vfa[1]
  R0112A:=Vfb[1]
ENDUSE
USE Yaluk1 AS Yaluk0001
INPUT
  Va[1]:=M0114A
  Vb[1]:=M0115A
DATA
  No_Lin:=113
OUTPUT
  L0113A:=Vfa[1]
  R0113A:=Vfb[1]
ENDUSE
USE Yaluk1 AS Yaluk0001
INPUT
  Va[1]:=M0115A
  Vb[1]:=M0116A
DATA
  No_Lin:=114
OUTPUT
  L0114A:=Vfa[1]
  R0114A:=Vfb[1]
ENDUSE
USE Yaluk1 AS Yaluk0001
INPUT
  Va[1]:=M0116A
  Vb[1]:=M0117A
DATA
  No_Lin:=115
OUTPUT
  L0115A:=Vfa[1]
  R0115A:=Vfb[1]
ENDUSE
USE Yaluk1 AS Yaluk0001
INPUT
  Va[1]:=M0117A
  Vb[1]:=M0118A
DATA
  No_Lin:=116
OUTPUT
  L0116A:=Vfa[1]
  R0116A:=Vfb[1]
ENDUSE
USE Yaluk1 AS Yaluk0001
INPUT
  Va[1]:=M0118A
  Vb[1]:=M0119A
DATA
  No_Lin:=117
OUTPUT
  L0117A:=Vfa[1]
  R0117A:=Vfb[1]
ENDUSE
USE Yaluk1 AS Yaluk0001
INPUT
  Va[1]:=M0119A
  Vb[1]:=M0120A
DATA
  No_Lin:=118
OUTPUT
  L0118A:=Vfa[1]
  R0118A:=Vfb[1]
ENDUSE
USE Yaluk1 AS Yaluk0001
INPUT
  Va[1]:=M0120A
  Vb[1]:=M0121A
DATA
  No_Lin:=119
OUTPUT
  L0119A:=Vfa[1]
  R0119A:=Vfb[1]
ENDUSE
USE Yaluk1 AS Yaluk0001
INPUT
  Va[1]:=M0121A
  Vb[1]:=M0122A
DATA
  No_Lin:=120
OUTPUT
  L0120A:=Vfa[1]
  R0120A:=Vfb[1]
ENDUSE
USE Yaluk1 AS Yaluk0001
INPUT
  Va[1]:=M0122A
  Vb[1]:=M0123A
DATA
  No_Lin:=121
OUTPUT
  L0121A:=Vfa[1]
  R0121A:=Vfb[1]
ENDUSE
USE Yaluk1 AS Yaluk0001
INPUT
  Va[1]:=M0123A
  Vb[1]:=M0124A
DATA
  No_Lin:=122
OUTPUT
  L0122A:=Vfa[1]
  R0122A:=Vfb[1]
ENDUSE
USE Yaluk1 AS Yaluk0001
INPUT
  Va[1]:=M0124A
  Vb[1]:=M0125A
DATA
  No_Lin:=123
OUTPUT
  L0123A:=Vfa[1]
  R0123A:=Vfb[1]
ENDUSE
USE Yaluk1 AS Yaluk0001
INPUT
  Va[1]:=M0125A
  Vb[1]:=M0126A
DATA
  No_Lin:=124
OUTPUT
  L0124A:=Vfa[1]
  R0124A:=Vfb[1]
ENDUSE
USE Yaluk1 AS Yaluk0001
INPUT
  Va[1]:=M0126A
  Vb[1]:=M0127A
DATA
  No_Lin:=125
OUTPUT
  L0125A:=Vfa[1]
  R0125A:=Vfb[1]
ENDUSE
USE Yaluk1 AS Yaluk0001
INPUT
  Va[1]:=M0127A
  Vb[1]:=M0128A
DATA
  No_Lin:=126
OUTPUT
  L0126A:=Vfa[1]
  R0126A:=Vfb[1]
ENDUSE
USE Yaluk1 AS Yaluk0001
INPUT
  Va[1]:=M0128A
  Vb[1]:=M0129A
DATA
  No_Lin:=127
OUTPUT
  L0127A:=Vfa[1]
  R0127A:=Vfb[1]
ENDUSE
USE Yaluk1 AS Yaluk0001
INPUT
  Va[1]:=M0129A
  Vb[1]:=M0130A
DATA
  No_Lin:=128
OUTPUT
  L0128A:=Vfa[1]
  R0128A:=Vfb[1]
ENDUSE
USE Yaluk1 AS Yaluk0001
INPUT
  Va[1]:=M0130A
  Vb[1]:=M0131A
DATA
  No_Lin:=129
OUTPUT
  L0129A:=Vfa[1]
  R0129A:=Vfb[1]
ENDUSE
USE Yaluk1 AS Yaluk0001
INPUT
  Va[1]:=M0131A
  Vb[1]:=M0132A
DATA
  No_Lin:=130
OUTPUT
  L0130A:=Vfa[1]
  R0130A:=Vfb[1]
ENDUSE
USE Yaluk1 AS Yaluk0001
INPUT
  Va[1]:=M0132A
  Vb[1]:=M0133A
DATA
  No_Lin:=131
OUTPUT
  L0131A:=Vfa[1]
  R0131A:=Vfb[1]
ENDUSE
USE Yaluk1 AS Yaluk0001
INPUT
  Va[1]:=M0133A
  Vb[1]:=M0134A
DATA
  No_Lin:=132
OUTPUT
  L0132A:=Vfa[1]
  R0132A:=Vfb[1]
ENDUSE
USE Yaluk1 AS Yaluk0001
INPUT
  Va[1]:=M0134A
  Vb[1]:=M0135A
DATA
  No_Lin:=133
OUTPUT
  L0133A:=Vfa[1]
  R0133A:=Vfb[1]
ENDUSE
USE Yaluk1 AS Yaluk0001
INPUT
  Va[1]:=M0135A
  Vb[1]:=M0136A
DATA
  No_Lin:=134
OUTPUT
  L0134A:=Vfa[1]
  R0134A:=Vfb[1]
ENDUSE
USE Yaluk1 AS Yaluk0001
INPUT
  Va[1]:=M0136A
  Vb[1]:=M0137A
DATA
  No_Lin:=135
OUTPUT
  L0135A:=Vfa[1]
  R0135A:=Vfb[1]
ENDUSE
USE Yaluk1 AS Yaluk0001
INPUT
  Va[1]:=M0137A
  Vb[1]:=M0138A
DATA
  No_Lin:=136
OUTPUT
  L0136A:=Vfa[1]
  R0136A:=Vfb[1]
ENDUSE
USE Yaluk1 AS Yaluk0001
INPUT
  Va[1]:=M0138A
  Vb[1]:=M0139A
DATA
  No_Lin:=137
OUTPUT
  L0137A:=Vfa[1]
  R0137A:=Vfb[1]
ENDUSE
USE Yaluk1 AS Yaluk0001
INPUT
  Va[1]:=M0139A
  Vb[1]:=M0140A
DATA
  No_Lin:=138
OUTPUT
  L0138A:=Vfa[1]
  R0138A:=Vfb[1]
ENDUSE
USE Yaluk1 AS Yaluk0001
INPUT
  Va[1]:=M0140A
  Vb[1]:=M0141A
DATA
  No_Lin:=139
OUTPUT
  L0139A:=Vfa[1]
  R0139A:=Vfb[1]
ENDUSE
USE Yaluk1 AS Yaluk0001
INPUT
  Va[1]:=M0141A
  Vb[1]:=M0142A
DATA
  No_Lin:=140
OUTPUT
  L0140A:=Vfa[1]
  R0140A:=Vfb[1]
ENDUSE
USE Yaluk1 AS Yaluk0001
INPUT
  Va[1]:=M0142A
  Vb[1]:=M0143A
DATA
  No_Lin:=141
OUTPUT
  L0141A:=Vfa[1]
  R0141A:=Vfb[1]
ENDUSE
USE Yaluk1 AS Yaluk0001
INPUT
  Va[1]:=M0143A
  Vb[1]:=M0144A
DATA
  No_Lin:=142
OUTPUT
  L0142A:=Vfa[1]
  R0142A:=Vfb[1]
ENDUSE
USE Yaluk1 AS Yaluk0001
INPUT
  Va[1]:=M0144A
  Vb[1]:=M0145A
DATA
  No_Lin:=143
OUTPUT
  L0143A:=Vfa[1]
  R0143A:=Vfb[1]
ENDUSE
USE Yaluk1 AS Yaluk0001
INPUT
  Va[1]:=M0145A
  Vb[1]:=M0146A
DATA
  No_Lin:=144
OUTPUT
  L0144A:=Vfa[1]
  R0144A:=Vfb[1]
ENDUSE
USE Yaluk1 AS Yaluk0001
INPUT
  Va[1]:=M0146A
  Vb[1]:=M0147A
DATA
  No_Lin:=145
OUTPUT
  L0145A:=Vfa[1]
  R0145A:=Vfb[1]
ENDUSE
USE Yaluk1 AS Yaluk0001
INPUT
  Va[1]:=M0147A
  Vb[1]:=M0148A
DATA
  No_Lin:=146
OUTPUT
  L0146A:=Vfa[1]
  R0146A:=Vfb[1]
ENDUSE
USE Yaluk1 AS Yaluk0001
INPUT
  Va[1]:=M0148A
  Vb[1]:=M0149A
DATA
  No_Lin:=147
OUTPUT
  L0147A:=Vfa[1]
  R0147A:=Vfb[1]
ENDUSE
USE Yaluk1 AS Yaluk0001
INPUT
  Va[1]:=M0149A
  Vb[1]:=M0150A
DATA
  No_Lin:=148
OUTPUT
  L0148A:=Vfa[1]
  R0148A:=Vfb[1]
ENDUSE
USE Yaluk1 AS Yaluk0001
INPUT
  Va[1]:=M0150A
  Vb[1]:=M0151A
DATA
  No_Lin:=149
OUTPUT
  L0149A:=Vfa[1]
  R0149A:=Vfb[1]
ENDUSE
USE Yaluk1 AS Yaluk0001
INPUT
  Va[1]:=M0151A
  Vb[1]:=M0152A
DATA
  No_Lin:=150
OUTPUT
  L0150A:=Vfa[1]
  R0150A:=Vfb[1]
ENDUSE
USE Yaluk1 AS Yaluk0001
INPUT
  Va[1]:=M0152A
  Vb[1]:=M0153A
DATA
  No_Lin:=151
OUTPUT
  L0151A:=Vfa[1]
  R0151A:=Vfb[1]
ENDUSE
USE Yaluk1 AS Yaluk0001
INPUT
  Va[1]:=M0153A
  Vb[1]:=M0154A
DATA
  No_Lin:=152
OUTPUT
  L0152A:=Vfa[1]
  R0152A:=Vfb[1]
ENDUSE
USE Yaluk1 AS Yaluk0001
INPUT
  Va[1]:=M0154A
  Vb[1]:=M0155A
DATA
  No_Lin:=153
OUTPUT
  L0153A:=Vfa[1]
  R0153A:=Vfb[1]
ENDUSE
USE Yaluk1 AS Yaluk0001
INPUT
  Va[1]:=M0155A
  Vb[1]:=M0156A
DATA
  No_Lin:=154
OUTPUT
  L0154A:=Vfa[1]
  R0154A:=Vfb[1]
ENDUSE
USE Yaluk1 AS Yaluk0001
INPUT
  Va[1]:=M0156A
  Vb[1]:=M0157A
DATA
  No_Lin:=155
OUTPUT
  L0155A:=Vfa[1]
  R0155A:=Vfb[1]
ENDUSE
USE Yaluk1 AS Yaluk0001
INPUT
  Va[1]:=M0157A
  Vb[1]:=M0158A
DATA
  No_Lin:=156
OUTPUT
  L0156A:=Vfa[1]
  R0156A:=Vfb[1]
ENDUSE
USE Yaluk1 AS Yaluk0001
INPUT
  Va[1]:=M0158A
  Vb[1]:=M0159A
DATA
  No_Lin:=157
OUTPUT
  L0157A:=Vfa[1]
  R0157A:=Vfb[1]
ENDUSE
USE Yaluk1 AS Yaluk0001
INPUT
  Va[1]:=M0159A
  Vb[1]:=M0160A
DATA
  No_Lin:=158
OUTPUT
  L0158A:=Vfa[1]
  R0158A:=Vfb[1]
ENDUSE
USE Yaluk1 AS Yaluk0001
INPUT
  Va[1]:=M0160A
  Vb[1]:=M0161A
DATA
  No_Lin:=159
OUTPUT
  L0159A:=Vfa[1]
  R0159A:=Vfb[1]
ENDUSE
USE Yaluk1 AS Yaluk0001
INPUT
  Va[1]:=M0161A
  Vb[1]:=M0162A
DATA
  No_Lin:=160
OUTPUT
  L0160A:=Vfa[1]
  R0160A:=Vfb[1]
ENDUSE
USE Yaluk1 AS Yaluk0001
INPUT
  Va[1]:=M0162A
  Vb[1]:=M0163A
DATA
  No_Lin:=161
OUTPUT
  L0161A:=Vfa[1]
  R0161A:=Vfb[1]
ENDUSE
USE Yaluk1 AS Yaluk0001
INPUT
  Va[1]:=M0163A
  Vb[1]:=M0164A
DATA
  No_Lin:=162
OUTPUT
  L0162A:=Vfa[1]
  R0162A:=Vfb[1]