BEGIN NEW DATA CASE
C --------------------------------------------------------
C Generated by YALUK DRAW 2.0
C Developed by: Ernesto Pérez G
C eperezg@unal.edu.co
C Universidad Nacional de Colombia
C File Created on: 12/12/2020 10:48:16 PM
C --------------------------------------------------------
C Project Name:L72_502_circuitC2.0
C   
C  dT  >< Tmax >< Xopt >< Copt > 
.5000E-7.3500E-4
  999999     100       0       0       1       0       0       0       0
/MODELS
MODELS
INPUT
M1807A  {v(N1807A)}
M1807B  {v(N1807B)}
M1807C  {v(N1807C)}
M1807N  {v(N1807N)}
M1808A  {v(N1808A)}
M1808B  {v(N1808B)}
M1808C  {v(N1808C)}
M1808N  {v(N1808N)}
M1809A  {v(N1809A)}
M1809B  {v(N1809B)}
M1809C  {v(N1809C)}
M1809N  {v(N1809N)}
M1810A  {v(N1810A)}
M1810B  {v(N1810B)}
M1810C  {v(N1810C)}
M1810N  {v(N1810N)}
M1811A  {v(N1811A)}
M1811B  {v(N1811B)}
M1811C  {v(N1811C)}
M1811N  {v(N1811N)}
M1812A  {v(N1812A)}
M1812B  {v(N1812B)}
M1812C  {v(N1812C)}
M1812N  {v(N1812N)}
M1813A  {v(N1813A)}
M1813B  {v(N1813B)}
M1813C  {v(N1813C)}
M1813N  {v(N1813N)}
M1814A  {v(N1814A)}
M1814B  {v(N1814B)}
M1814C  {v(N1814C)}
M1814N  {v(N1814N)}
M1815A  {v(N1815A)}
M1815B  {v(N1815B)}
M1815C  {v(N1815C)}
M1815N  {v(N1815N)}
M1816A  {v(N1816A)}
M1816B  {v(N1816B)}
M1816C  {v(N1816C)}
M1816N  {v(N1816N)}
M1817A  {v(N1817A)}
M1817B  {v(N1817B)}
M1817C  {v(N1817C)}
M1817N  {v(N1817N)}
M1818A  {v(N1818A)}
M1818B  {v(N1818B)}
M1818C  {v(N1818C)}
M1818N  {v(N1818N)}
M1819A  {v(N1819A)}
M1819B  {v(N1819B)}
M1819C  {v(N1819C)}
M1819N  {v(N1819N)}
M1820A  {v(N1820A)}
M1820B  {v(N1820B)}
M1820C  {v(N1820C)}
M1820N  {v(N1820N)}
M1821A  {v(N1821A)}
M1821B  {v(N1821B)}
M1821C  {v(N1821C)}
M1821N  {v(N1821N)}
M1822A  {v(N1822A)}
M1822B  {v(N1822B)}
M1822C  {v(N1822C)}
M1822N  {v(N1822N)}
M1823A  {v(N1823A)}
M1823B  {v(N1823B)}
M1823C  {v(N1823C)}
M1823N  {v(N1823N)}
M1824A  {v(N1824A)}
M1824B  {v(N1824B)}
M1824C  {v(N1824C)}
M1824N  {v(N1824N)}
M1825A  {v(N1825A)}
M1825B  {v(N1825B)}
M1825C  {v(N1825C)}
M1825N  {v(N1825N)}
M1826A  {v(N1826A)}
M1826B  {v(N1826B)}
M1826C  {v(N1826C)}
M1826N  {v(N1826N)}
M1827A  {v(N1827A)}
M1827B  {v(N1827B)}
M1827C  {v(N1827C)}
M1827N  {v(N1827N)}
M1828A  {v(N1828A)}
M1828B  {v(N1828B)}
M1828C  {v(N1828C)}
M1828N  {v(N1828N)}
M1829A  {v(N1829A)}
M1829B  {v(N1829B)}
M1829C  {v(N1829C)}
M1829N  {v(N1829N)}
M1830A  {v(N1830A)}
M1830B  {v(N1830B)}
M1830C  {v(N1830C)}
M1830N  {v(N1830N)}
M1831A  {v(N1831A)}
M1831B  {v(N1831B)}
M1831C  {v(N1831C)}
M1831N  {v(N1831N)}
M1832A  {v(N1832A)}
M1832B  {v(N1832B)}
M1832C  {v(N1832C)}
M1832N  {v(N1832N)}
M1833A  {v(N1833A)}
M1833B  {v(N1833B)}
M1833C  {v(N1833C)}
M1833N  {v(N1833N)}
M1834A  {v(N1834A)}
M1834B  {v(N1834B)}
M1834C  {v(N1834C)}
M1834N  {v(N1834N)}
M1835A  {v(N1835A)}
M1835B  {v(N1835B)}
M1835C  {v(N1835C)}
M1835N  {v(N1835N)}
M1836A  {v(N1836A)}
M1836B  {v(N1836B)}
M1836C  {v(N1836C)}
M1836N  {v(N1836N)}
M1837A  {v(N1837A)}
M1837B  {v(N1837B)}
M1837C  {v(N1837C)}
M1837N  {v(N1837N)}
M1838A  {v(N1838A)}
M1838B  {v(N1838B)}
M1838C  {v(N1838C)}
M1838N  {v(N1838N)}
M1839A  {v(N1839A)}
M1839B  {v(N1839B)}
M1839C  {v(N1839C)}
M1839N  {v(N1839N)}
M1840A  {v(N1840A)}
M1840B  {v(N1840B)}
M1840C  {v(N1840C)}
M1840N  {v(N1840N)}
M1841A  {v(N1841A)}
M1841B  {v(N1841B)}
M1841C  {v(N1841C)}
M1841N  {v(N1841N)}
M1842A  {v(N1842A)}
M1842B  {v(N1842B)}
M1842C  {v(N1842C)}
M1842N  {v(N1842N)}
M1843A  {v(N1843A)}
M1843B  {v(N1843B)}
M1843C  {v(N1843C)}
M1843N  {v(N1843N)}
M1844A  {v(N1844A)}
M1844B  {v(N1844B)}
M1844C  {v(N1844C)}
M1844N  {v(N1844N)}
M1845A  {v(N1845A)}
M1845B  {v(N1845B)}
M1845C  {v(N1845C)}
M1845N  {v(N1845N)}
M1846A  {v(N1846A)}
M1846B  {v(N1846B)}
M1846C  {v(N1846C)}
M1846N  {v(N1846N)}
M1847A  {v(N1847A)}
M1847B  {v(N1847B)}
M1847C  {v(N1847C)}
M1847N  {v(N1847N)}
M1848A  {v(N1848A)}
M1848B  {v(N1848B)}
M1848C  {v(N1848C)}
M1848N  {v(N1848N)}
M1849A  {v(N1849A)}
M1849B  {v(N1849B)}
M1849C  {v(N1849C)}
M1849N  {v(N1849N)}
M1850A  {v(N1850A)}
M1850B  {v(N1850B)}
M1850C  {v(N1850C)}
M1850N  {v(N1850N)}
M1851A  {v(N1851A)}
M1851B  {v(N1851B)}
M1851C  {v(N1851C)}
M1851N  {v(N1851N)}
M1852A  {v(N1852A)}
M1852B  {v(N1852B)}
M1852C  {v(N1852C)}
M1852N  {v(N1852N)}
M1853A  {v(N1853A)}
M1853B  {v(N1853B)}
M1853C  {v(N1853C)}
M1853N  {v(N1853N)}
M1854A  {v(N1854A)}
M1854B  {v(N1854B)}
M1854C  {v(N1854C)}
M1854N  {v(N1854N)}
M1855A  {v(N1855A)}
M1855B  {v(N1855B)}
M1855C  {v(N1855C)}
M1855N  {v(N1855N)}
M1856A  {v(N1856A)}
M1856B  {v(N1856B)}
M1856C  {v(N1856C)}
M1856N  {v(N1856N)}
M1857A  {v(N1857A)}
M1857B  {v(N1857B)}
M1857C  {v(N1857C)}
M1857N  {v(N1857N)}
M1858A  {v(N1858A)}
M1858B  {v(N1858B)}
M1858C  {v(N1858C)}
M1858N  {v(N1858N)}
M1859A  {v(N1859A)}
M1859B  {v(N1859B)}
M1859C  {v(N1859C)}
M1859N  {v(N1859N)}
M1860A  {v(N1860A)}
M1860B  {v(N1860B)}
M1860C  {v(N1860C)}
M1860N  {v(N1860N)}
M1861A  {v(N1861A)}
M1861B  {v(N1861B)}
M1861C  {v(N1861C)}
M1861N  {v(N1861N)}
M1862A  {v(N1862A)}
M1862B  {v(N1862B)}
M1862C  {v(N1862C)}
M1862N  {v(N1862N)}
M1863A  {v(N1863A)}
M1863B  {v(N1863B)}
M1863C  {v(N1863C)}
M1863N  {v(N1863N)}
M1864A  {v(N1864A)}
M1864B  {v(N1864B)}
M1864C  {v(N1864C)}
M1864N  {v(N1864N)}
M1865A  {v(N1865A)}
M1865B  {v(N1865B)}
M1865C  {v(N1865C)}
M1865N  {v(N1865N)}
M1866A  {v(N1866A)}
M1866B  {v(N1866B)}
M1866C  {v(N1866C)}
M1866N  {v(N1866N)}
M1867A  {v(N1867A)}
M1867B  {v(N1867B)}
M1867C  {v(N1867C)}
M1867N  {v(N1867N)}
M1868A  {v(N1868A)}
M1868B  {v(N1868B)}
M1868C  {v(N1868C)}
M1868N  {v(N1868N)}
M1869A  {v(N1869A)}
M1869B  {v(N1869B)}
M1869C  {v(N1869C)}
M1869N  {v(N1869N)}
M1870A  {v(N1870A)}
M1870B  {v(N1870B)}
M1870C  {v(N1870C)}
M1870N  {v(N1870N)}
M1871A  {v(N1871A)}
M1871B  {v(N1871B)}
M1871C  {v(N1871C)}
M1871N  {v(N1871N)}
M1872A  {v(N1872A)}
M1872B  {v(N1872B)}
M1872C  {v(N1872C)}
M1872N  {v(N1872N)}
M1873A  {v(N1873A)}
M1873B  {v(N1873B)}
M1873C  {v(N1873C)}
M1873N  {v(N1873N)}
M1874A  {v(N1874A)}
M1874B  {v(N1874B)}
M1874C  {v(N1874C)}
M1874N  {v(N1874N)}
M1875A  {v(N1875A)}
M1875B  {v(N1875B)}
M1875C  {v(N1875C)}
M1875N  {v(N1875N)}
M1877A  {v(N1877A)}
M1877B  {v(N1877B)}
M1877C  {v(N1877C)}
M1877N  {v(N1877N)}
M1878A  {v(N1878A)}
M1878B  {v(N1878B)}
M1878C  {v(N1878C)}
M1878N  {v(N1878N)}
M1879A  {v(N1879A)}
M1879B  {v(N1879B)}
M1879C  {v(N1879C)}
M1879N  {v(N1879N)}
M1880A  {v(N1880A)}
M1880B  {v(N1880B)}
M1880C  {v(N1880C)}
M1880N  {v(N1880N)}
M1881A  {v(N1881A)}
M1881B  {v(N1881B)}
M1881C  {v(N1881C)}
M1881N  {v(N1881N)}
M1882A  {v(N1882A)}
M1882B  {v(N1882B)}
M1882C  {v(N1882C)}
M1882N  {v(N1882N)}
M1883A  {v(N1883A)}
M1883B  {v(N1883B)}
M1883C  {v(N1883C)}
M1883N  {v(N1883N)}
M1884A  {v(N1884A)}
M1884B  {v(N1884B)}
M1884C  {v(N1884C)}
M1884N  {v(N1884N)}
M1885A  {v(N1885A)}
M1885B  {v(N1885B)}
M1885C  {v(N1885C)}
M1885N  {v(N1885N)}
M1886A  {v(N1886A)}
M1886B  {v(N1886B)}
M1886C  {v(N1886C)}
M1886N  {v(N1886N)}
M1887A  {v(N1887A)}
M1887B  {v(N1887B)}
M1887C  {v(N1887C)}
M1887N  {v(N1887N)}
M1888A  {v(N1888A)}
M1888B  {v(N1888B)}
M1888C  {v(N1888C)}
M1888N  {v(N1888N)}
M1889A  {v(N1889A)}
M1889B  {v(N1889B)}
M1889C  {v(N1889C)}
M1889N  {v(N1889N)}
M1890A  {v(N1890A)}
M1890B  {v(N1890B)}
M1890C  {v(N1890C)}
M1890N  {v(N1890N)}
M1891A  {v(N1891A)}
M1891B  {v(N1891B)}
M1891C  {v(N1891C)}
M1891N  {v(N1891N)}
M1892A  {v(N1892A)}
M1892B  {v(N1892B)}
M1892C  {v(N1892C)}
M1892N  {v(N1892N)}
M1893A  {v(N1893A)}
M1893B  {v(N1893B)}
M1893C  {v(N1893C)}
M1893N  {v(N1893N)}
M1894A  {v(N1894A)}
M1894B  {v(N1894B)}
M1894C  {v(N1894C)}
M1894N  {v(N1894N)}
OUTPUT
   L0001A
   R0001A
   L0001B
   R0001B
   L0001C
   R0001C
   L0001N
   R0001N
   L0002A
   R0002A
   L0002B
   R0002B
   L0002C
   R0002C
   L0002N
   R0002N
   L0003A
   R0003A
   L0003B
   R0003B
   L0003C
   R0003C
   L0003N
   R0003N
   L0004A
   R0004A
   L0004B
   R0004B
   L0004C
   R0004C
   L0004N
   R0004N
   L0005A
   R0005A
   L0005B
   R0005B
   L0005C
   R0005C
   L0005N
   R0005N
   L0006A
   R0006A
   L0006B
   R0006B
   L0006C
   R0006C
   L0006N
   R0006N
   L0007A
   R0007A
   L0007B
   R0007B
   L0007C
   R0007C
   L0007N
   R0007N
   L0008A
   R0008A
   L0008B
   R0008B
   L0008C
   R0008C
   L0008N
   R0008N
   L0009A
   R0009A
   L0009B
   R0009B
   L0009C
   R0009C
   L0009N
   R0009N
   L0010A
   R0010A
   L0010B
   R0010B
   L0010C
   R0010C
   L0010N
   R0010N
   L0011A
   R0011A
   L0011B
   R0011B
   L0011C
   R0011C
   L0011N
   R0011N
   L0012A
   R0012A
   L0012B
   R0012B
   L0012C
   R0012C
   L0012N
   R0012N
   L0013A
   R0013A
   L0013B
   R0013B
   L0013C
   R0013C
   L0013N
   R0013N
   L0014A
   R0014A
   L0014B
   R0014B
   L0014C
   R0014C
   L0014N
   R0014N
   L0015A
   R0015A
   L0015B
   R0015B
   L0015C
   R0015C
   L0015N
   R0015N
   L0016A
   R0016A
   L0016B
   R0016B
   L0016C
   R0016C
   L0016N
   R0016N
   L0017A
   R0017A
   L0017B
   R0017B
   L0017C
   R0017C
   L0017N
   R0017N
   L0018A
   R0018A
   L0018B
   R0018B
   L0018C
   R0018C
   L0018N
   R0018N
   L0019A
   R0019A
   L0019B
   R0019B
   L0019C
   R0019C
   L0019N
   R0019N
   L0020A
   R0020A
   L0020B
   R0020B
   L0020C
   R0020C
   L0020N
   R0020N
   L0021A
   R0021A
   L0021B
   R0021B
   L0021C
   R0021C
   L0021N
   R0021N
   L0022A
   R0022A
   L0022B
   R0022B
   L0022C
   R0022C
   L0022N
   R0022N
   L0023A
   R0023A
   L0023B
   R0023B
   L0023C
   R0023C
   L0023N
   R0023N
   L0024A
   R0024A
   L0024B
   R0024B
   L0024C
   R0024C
   L0024N
   R0024N
   L0025A
   R0025A
   L0025B
   R0025B
   L0025C
   R0025C
   L0025N
   R0025N
   L0026A
   R0026A
   L0026B
   R0026B
   L0026C
   R0026C
   L0026N
   R0026N
   L0027A
   R0027A
   L0027B
   R0027B
   L0027C
   R0027C
   L0027N
   R0027N
   L0028A
   R0028A
   L0028B
   R0028B
   L0028C
   R0028C
   L0028N
   R0028N
   L0029A
   R0029A
   L0029B
   R0029B
   L0029C
   R0029C
   L0029N
   R0029N
   L0030A
   R0030A
   L0030B
   R0030B
   L0030C
   R0030C
   L0030N
   R0030N
   L0031A
   R0031A
   L0031B
   R0031B
   L0031C
   R0031C
   L0031N
   R0031N
   L0032A
   R0032A
   L0032B
   R0032B
   L0032C
   R0032C
   L0032N
   R0032N
   L0033A
   R0033A
   L0033B
   R0033B
   L0033C
   R0033C
   L0033N
   R0033N
   L0034A
   R0034A
   L0034B
   R0034B
   L0034C
   R0034C
   L0034N
   R0034N
   L0035A
   R0035A
   L0035B
   R0035B
   L0035C
   R0035C
   L0035N
   R0035N
   L0036A
   R0036A
   L0036B
   R0036B
   L0036C
   R0036C
   L0036N
   R0036N
   L0037A
   R0037A
   L0037B
   R0037B
   L0037C
   R0037C
   L0037N
   R0037N
   L0038A
   R0038A
   L0038B
   R0038B
   L0038C
   R0038C
   L0038N
   R0038N
   L0039A
   R0039A
   L0039B
   R0039B
   L0039C
   R0039C
   L0039N
   R0039N
   L0040A
   R0040A
   L0040B
   R0040B
   L0040C
   R0040C
   L0040N
   R0040N
   L0041A
   R0041A
   L0041B
   R0041B
   L0041C
   R0041C
   L0041N
   R0041N
   L0042A
   R0042A
   L0042B
   R0042B
   L0042C
   R0042C
   L0042N
   R0042N
   L0043A
   R0043A
   L0043B
   R0043B
   L0043C
   R0043C
   L0043N
   R0043N
   L0044A
   R0044A
   L0044B
   R0044B
   L0044C
   R0044C
   L0044N
   R0044N
   L0045A
   R0045A
   L0045B
   R0045B
   L0045C
   R0045C
   L0045N
   R0045N
   L0046A
   R0046A
   L0046B
   R0046B
   L0046C
   R0046C
   L0046N
   R0046N
   L0047A
   R0047A
   L0047B
   R0047B
   L0047C
   R0047C
   L0047N
   R0047N
   L0048A
   R0048A
   L0048B
   R0048B
   L0048C
   R0048C
   L0048N
   R0048N
   L0049A
   R0049A
   L0049B
   R0049B
   L0049C
   R0049C
   L0049N
   R0049N
   L0050A
   R0050A
   L0050B
   R0050B
   L0050C
   R0050C
   L0050N
   R0050N
   L0051A
   R0051A
   L0051B
   R0051B
   L0051C
   R0051C
   L0051N
   R0051N
   L0052A
   R0052A
   L0052B
   R0052B
   L0052C
   R0052C
   L0052N
   R0052N
   L0053A
   R0053A
   L0053B
   R0053B
   L0053C
   R0053C
   L0053N
   R0053N
   L0054A
   R0054A
   L0054B
   R0054B
   L0054C
   R0054C
   L0054N
   R0054N
   L0055A
   R0055A
   L0055B
   R0055B
   L0055C
   R0055C
   L0055N
   R0055N
   L0056A
   R0056A
   L0056B
   R0056B
   L0056C
   R0056C
   L0056N
   R0056N
   L0057A
   R0057A
   L0057B
   R0057B
   L0057C
   R0057C
   L0057N
   R0057N
   L0058A
   R0058A
   L0058B
   R0058B
   L0058C
   R0058C
   L0058N
   R0058N
   L0059A
   R0059A
   L0059B
   R0059B
   L0059C
   R0059C
   L0059N
   R0059N
   L0060A
   R0060A
   L0060B
   R0060B
   L0060C
   R0060C
   L0060N
   R0060N
   L0061A
   R0061A
   L0061B
   R0061B
   L0061C
   R0061C
   L0061N
   R0061N
   L0062A
   R0062A
   L0062B
   R0062B
   L0062C
   R0062C
   L0062N
   R0062N
   L0063A
   R0063A
   L0063B
   R0063B
   L0063C
   R0063C
   L0063N
   R0063N
   L0064A
   R0064A
   L0064B
   R0064B
   L0064C
   R0064C
   L0064N
   R0064N
   L0065A
   R0065A
   L0065B
   R0065B
   L0065C
   R0065C
   L0065N
   R0065N
   L0066A
   R0066A
   L0066B
   R0066B
   L0066C
   R0066C
   L0066N
   R0066N
   L0067A
   R0067A
   L0067B
   R0067B
   L0067C
   R0067C
   L0067N
   R0067N
   L0068A
   R0068A
   L0068B
   R0068B
   L0068C
   R0068C
   L0068N
   R0068N
   L0069A
   R0069A
   L0069B
   R0069B
   L0069C
   R0069C
   L0069N
   R0069N
   L0070A
   R0070A
   L0070B
   R0070B
   L0070C
   R0070C
   L0070N
   R0070N
   L0071A
   R0071A
   L0071B
   R0071B
   L0071C
   R0071C
   L0071N
   R0071N
   L0072A
   R0072A
   L0072B
   R0072B
   L0072C
   R0072C
   L0072N
   R0072N
   L0073A
   R0073A
   L0073B
   R0073B
   L0073C
   R0073C
   L0073N
   R0073N
   L0074A
   R0074A
   L0074B
   R0074B
   L0074C
   R0074C
   L0074N
   R0074N
   L0075A
   R0075A
   L0075B
   R0075B
   L0075C
   R0075C
   L0075N
   R0075N
   L0076A
   R0076A
   L0076B
   R0076B
   L0076C
   R0076C
   L0076N
   R0076N
   L0077A
   R0077A
   L0077B
   R0077B
   L0077C
   R0077C
   L0077N
   R0077N
   L0078A
   R0078A
   L0078B
   R0078B
   L0078C
   R0078C
   L0078N
   R0078N
   L0079A
   R0079A
   L0079B
   R0079B
   L0079C
   R0079C
   L0079N
   R0079N
   L0080A
   R0080A
   L0080B
   R0080B
   L0080C
   R0080C
   L0080N
   R0080N
   L0081A
   R0081A
   L0081B
   R0081B
   L0081C
   R0081C
   L0081N
   R0081N
   L0082A
   R0082A
   L0082B
   R0082B
   L0082C
   R0082C
   L0082N
   R0082N
   L0083A
   R0083A
   L0083B
   R0083B
   L0083C
   R0083C
   L0083N
   R0083N
   L0084A
   R0084A
   L0084B
   R0084B
   L0084C
   R0084C
   L0084N
   R0084N
   L0085A
   R0085A
   L0085B
   R0085B
   L0085C
   R0085C
   L0085N
   R0085N
   L0086A
   R0086A
   L0086B
   R0086B
   L0086C
   R0086C
   L0086N
   R0086N
MODEL Yaluk1
 -- This model is link with ATP by means of a iluminated line characteristic method
 -- It must have four inputs for one single line (Va,Ia,Vb,Ib)
CONST
cond {VAL:1} --num. phases
INPUT
  Va[1..cond]
  Vb[1..cond]
VAR Vfa[1..cond],Vfb[1..cond]
OUTPUT
   Vfa,Vfb
DATA
	No_Lin
MODEL yaluk_f FOREIGN YALUK_DLL_MODEL {ixdata:4, ixin:3, ixout:2, ixvar:200}
EXEC -- using the DLL subroutine
  USE yaluk_f AS yaluk_f
    DATA xdata[1..4]:=[timestep,stoptime,cond,No_Lin]
    INPUT xin[1..2*cond+1]:=[t,Va[1..cond],Vb[1..cond]]
  --    HISTORY histdef(xvar[1]):=0
    OUTPUT 	Vfa[1..cond]:=xout[1..cond]
		Vfb[1..cond]:=xout[cond+1..2*cond]
  ENDUSE
  ENDEXEC
ENDMODEL
MODEL Yaluk2
 -- This model is link with ATP by means of a iluminated line characteristic method
 -- It must have four inputs for one single line (Va,Ia,Vb,Ib)
CONST
cond {VAL:2} --num. phases
INPUT
  Va[1..cond]
  Vb[1..cond]
VAR Vfa[1..cond],Vfb[1..cond]
OUTPUT
   Vfa,Vfb
DATA
	No_Lin
MODEL yaluk_f FOREIGN YALUK_DLL_MODEL {ixdata:4, ixin:5, ixout:4, ixvar:200}
EXEC -- using the DLL subroutine
  USE yaluk_f AS yaluk_f
    DATA xdata[1..4]:=[timestep,stoptime,cond,No_Lin]
    INPUT xin[1..2*cond+1]:=[t,Va[1..cond],Vb[1..cond]]
  --    HISTORY histdef(xvar[1]):=0
    OUTPUT 	Vfa[1..cond]:=xout[1..cond]
		Vfb[1..cond]:=xout[cond+1..2*cond]
  ENDUSE
  ENDEXEC
ENDMODEL
MODEL Yaluk3
 -- This model is link with ATP by means of a iluminated line characteristic method
 -- It must have four inputs for one single line (Va,Ia,Vb,Ib)
CONST
cond {VAL:3} --num. phases
INPUT
  Va[1..cond]
  Vb[1..cond]
VAR Vfa[1..cond],Vfb[1..cond]
OUTPUT
   Vfa,Vfb
DATA
	No_Lin
MODEL yaluk_f FOREIGN YALUK_DLL_MODEL {ixdata:4, ixin:7, ixout:6, ixvar:200}
EXEC -- using the DLL subroutine
  USE yaluk_f AS yaluk_f
    DATA xdata[1..4]:=[timestep,stoptime,cond,No_Lin]
    INPUT xin[1..2*cond+1]:=[t,Va[1..cond],Vb[1..cond]]
  --    HISTORY histdef(xvar[1]):=0
    OUTPUT 	Vfa[1..cond]:=xout[1..cond]
		Vfb[1..cond]:=xout[cond+1..2*cond]
  ENDUSE
  ENDEXEC
ENDMODEL
MODEL Yaluk4
 -- This model is link with ATP by means of a iluminated line characteristic method
 -- It must have four inputs for one single line (Va,Ia,Vb,Ib)
CONST
cond {VAL:4} --num. phases
INPUT
  Va[1..cond]
  Vb[1..cond]
VAR Vfa[1..cond],Vfb[1..cond]
OUTPUT
   Vfa,Vfb
DATA
	No_Lin
MODEL yaluk_f FOREIGN YALUK_DLL_MODEL {ixdata:4, ixin:9, ixout:8, ixvar:200}
EXEC -- using the DLL subroutine
  USE yaluk_f AS yaluk_f
    DATA xdata[1..4]:=[timestep,stoptime,cond,No_Lin]
    INPUT xin[1..2*cond+1]:=[t,Va[1..cond],Vb[1..cond]]
  --    HISTORY histdef(xvar[1]):=0
    OUTPUT 	Vfa[1..cond]:=xout[1..cond]
		Vfb[1..cond]:=xout[cond+1..2*cond]
  ENDUSE
  ENDEXEC
ENDMODEL
USE Yaluk4 AS Yaluk0004
INPUT
  Va[1]:=M1807A
  Va[2]:=M1807B
  Va[3]:=M1807C
  Va[4]:=M1807N
  Vb[1]:=M1808A
  Vb[2]:=M1808B
  Vb[3]:=M1808C
  Vb[4]:=M1808N
DATA
  No_Lin:=1
OUTPUT
  L0001A:=Vfa[1]
  L0001B:=Vfa[2]
  L0001C:=Vfa[3]
  L0001N:=Vfa[4]
  R0001A:=Vfb[1]
  R0001B:=Vfb[2]
  R0001C:=Vfb[3]
  R0001N:=Vfb[4]
ENDUSE
USE Yaluk4 AS Yaluk0004
INPUT
  Va[1]:=M1808A
  Va[2]:=M1808B
  Va[3]:=M1808C
  Va[4]:=M1808N
  Vb[1]:=M1809A
  Vb[2]:=M1809B
  Vb[3]:=M1809C
  Vb[4]:=M1809N
DATA
  No_Lin:=2
OUTPUT
  L0002A:=Vfa[1]
  L0002B:=Vfa[2]
  L0002C:=Vfa[3]
  L0002N:=Vfa[4]
  R0002A:=Vfb[1]
  R0002B:=Vfb[2]
  R0002C:=Vfb[3]
  R0002N:=Vfb[4]
ENDUSE
USE Yaluk4 AS Yaluk0004
INPUT
  Va[1]:=M1809A
  Va[2]:=M1809B
  Va[3]:=M1809C
  Va[4]:=M1809N
  Vb[1]:=M1810A
  Vb[2]:=M1810B
  Vb[3]:=M1810C
  Vb[4]:=M1810N
DATA
  No_Lin:=3
OUTPUT
  L0003A:=Vfa[1]
  L0003B:=Vfa[2]
  L0003C:=Vfa[3]
  L0003N:=Vfa[4]
  R0003A:=Vfb[1]
  R0003B:=Vfb[2]
  R0003C:=Vfb[3]
  R0003N:=Vfb[4]
ENDUSE
USE Yaluk4 AS Yaluk0004
INPUT
  Va[1]:=M1810A
  Va[2]:=M1810B
  Va[3]:=M1810C
  Va[4]:=M1810N
  Vb[1]:=M1811A
  Vb[2]:=M1811B
  Vb[3]:=M1811C
  Vb[4]:=M1811N
DATA
  No_Lin:=4
OUTPUT
  L0004A:=Vfa[1]
  L0004B:=Vfa[2]
  L0004C:=Vfa[3]
  L0004N:=Vfa[4]
  R0004A:=Vfb[1]
  R0004B:=Vfb[2]
  R0004C:=Vfb[3]
  R0004N:=Vfb[4]
ENDUSE
USE Yaluk4 AS Yaluk0004
INPUT
  Va[1]:=M1811A
  Va[2]:=M1811B
  Va[3]:=M1811C
  Va[4]:=M1811N
  Vb[1]:=M1812A
  Vb[2]:=M1812B
  Vb[3]:=M1812C
  Vb[4]:=M1812N
DATA
  No_Lin:=5
OUTPUT
  L0005A:=Vfa[1]
  L0005B:=Vfa[2]
  L0005C:=Vfa[3]
  L0005N:=Vfa[4]
  R0005A:=Vfb[1]
  R0005B:=Vfb[2]
  R0005C:=Vfb[3]
  R0005N:=Vfb[4]
ENDUSE
USE Yaluk4 AS Yaluk0004
INPUT
  Va[1]:=M1812A
  Va[2]:=M1812B
  Va[3]:=M1812C
  Va[4]:=M1812N
  Vb[1]:=M1813A
  Vb[2]:=M1813B
  Vb[3]:=M1813C
  Vb[4]:=M1813N
DATA
  No_Lin:=6
OUTPUT
  L0006A:=Vfa[1]
  L0006B:=Vfa[2]
  L0006C:=Vfa[3]
  L0006N:=Vfa[4]
  R0006A:=Vfb[1]
  R0006B:=Vfb[2]
  R0006C:=Vfb[3]
  R0006N:=Vfb[4]
ENDUSE
USE Yaluk4 AS Yaluk0004
INPUT
  Va[1]:=M1813A
  Va[2]:=M1813B
  Va[3]:=M1813C
  Va[4]:=M1813N
  Vb[1]:=M1814A
  Vb[2]:=M1814B
  Vb[3]:=M1814C
  Vb[4]:=M1814N
DATA
  No_Lin:=7
OUTPUT
  L0007A:=Vfa[1]
  L0007B:=Vfa[2]
  L0007C:=Vfa[3]
  L0007N:=Vfa[4]
  R0007A:=Vfb[1]
  R0007B:=Vfb[2]
  R0007C:=Vfb[3]
  R0007N:=Vfb[4]
ENDUSE
USE Yaluk4 AS Yaluk0004
INPUT
  Va[1]:=M1814A
  Va[2]:=M1814B
  Va[3]:=M1814C
  Va[4]:=M1814N
  Vb[1]:=M1815A
  Vb[2]:=M1815B
  Vb[3]:=M1815C
  Vb[4]:=M1815N
DATA
  No_Lin:=8
OUTPUT
  L0008A:=Vfa[1]
  L0008B:=Vfa[2]
  L0008C:=Vfa[3]
  L0008N:=Vfa[4]
  R0008A:=Vfb[1]
  R0008B:=Vfb[2]
  R0008C:=Vfb[3]
  R0008N:=Vfb[4]
ENDUSE
USE Yaluk4 AS Yaluk0004
INPUT
  Va[1]:=M1815A
  Va[2]:=M1815B
  Va[3]:=M1815C
  Va[4]:=M1815N
  Vb[1]:=M1816A
  Vb[2]:=M1816B
  Vb[3]:=M1816C
  Vb[4]:=M1816N
DATA
  No_Lin:=9
OUTPUT
  L0009A:=Vfa[1]
  L0009B:=Vfa[2]
  L0009C:=Vfa[3]
  L0009N:=Vfa[4]
  R0009A:=Vfb[1]
  R0009B:=Vfb[2]
  R0009C:=Vfb[3]
  R0009N:=Vfb[4]
ENDUSE
USE Yaluk4 AS Yaluk0004
INPUT
  Va[1]:=M1816A
  Va[2]:=M1816B
  Va[3]:=M1816C
  Va[4]:=M1816N
  Vb[1]:=M1817A
  Vb[2]:=M1817B
  Vb[3]:=M1817C
  Vb[4]:=M1817N
DATA
  No_Lin:=10
OUTPUT
  L0010A:=Vfa[1]
  L0010B:=Vfa[2]
  L0010C:=Vfa[3]
  L0010N:=Vfa[4]
  R0010A:=Vfb[1]
  R0010B:=Vfb[2]
  R0010C:=Vfb[3]
  R0010N:=Vfb[4]
ENDUSE
USE Yaluk4 AS Yaluk0004
INPUT
  Va[1]:=M1817A
  Va[2]:=M1817B
  Va[3]:=M1817C
  Va[4]:=M1817N
  Vb[1]:=M1818A
  Vb[2]:=M1818B
  Vb[3]:=M1818C
  Vb[4]:=M1818N
DATA
  No_Lin:=11
OUTPUT
  L0011A:=Vfa[1]
  L0011B:=Vfa[2]
  L0011C:=Vfa[3]
  L0011N:=Vfa[4]
  R0011A:=Vfb[1]
  R0011B:=Vfb[2]
  R0011C:=Vfb[3]
  R0011N:=Vfb[4]
ENDUSE
USE Yaluk4 AS Yaluk0004
INPUT
  Va[1]:=M1818A
  Va[2]:=M1818B
  Va[3]:=M1818C
  Va[4]:=M1818N
  Vb[1]:=M1819A
  Vb[2]:=M1819B
  Vb[3]:=M1819C
  Vb[4]:=M1819N
DATA
  No_Lin:=12
OUTPUT
  L0012A:=Vfa[1]
  L0012B:=Vfa[2]
  L0012C:=Vfa[3]
  L0012N:=Vfa[4]
  R0012A:=Vfb[1]
  R0012B:=Vfb[2]
  R0012C:=Vfb[3]
  R0012N:=Vfb[4]
ENDUSE
USE Yaluk4 AS Yaluk0004
INPUT
  Va[1]:=M1819A
  Va[2]:=M1819B
  Va[3]:=M1819C
  Va[4]:=M1819N
  Vb[1]:=M1820A
  Vb[2]:=M1820B
  Vb[3]:=M1820C
  Vb[4]:=M1820N
DATA
  No_Lin:=13
OUTPUT
  L0013A:=Vfa[1]
  L0013B:=Vfa[2]
  L0013C:=Vfa[3]
  L0013N:=Vfa[4]
  R0013A:=Vfb[1]
  R0013B:=Vfb[2]
  R0013C:=Vfb[3]
  R0013N:=Vfb[4]
ENDUSE
USE Yaluk4 AS Yaluk0004
INPUT
  Va[1]:=M1820A
  Va[2]:=M1820B
  Va[3]:=M1820C
  Va[4]:=M1820N
  Vb[1]:=M1821A
  Vb[2]:=M1821B
  Vb[3]:=M1821C
  Vb[4]:=M1821N
DATA
  No_Lin:=14
OUTPUT
  L0014A:=Vfa[1]
  L0014B:=Vfa[2]
  L0014C:=Vfa[3]
  L0014N:=Vfa[4]
  R0014A:=Vfb[1]
  R0014B:=Vfb[2]
  R0014C:=Vfb[3]
  R0014N:=Vfb[4]
ENDUSE
USE Yaluk4 AS Yaluk0004
INPUT
  Va[1]:=M1821A
  Va[2]:=M1821B
  Va[3]:=M1821C
  Va[4]:=M1821N
  Vb[1]:=M1822A
  Vb[2]:=M1822B
  Vb[3]:=M1822C
  Vb[4]:=M1822N
DATA
  No_Lin:=15
OUTPUT
  L0015A:=Vfa[1]
  L0015B:=Vfa[2]
  L0015C:=Vfa[3]
  L0015N:=Vfa[4]
  R0015A:=Vfb[1]
  R0015B:=Vfb[2]
  R0015C:=Vfb[3]
  R0015N:=Vfb[4]
ENDUSE
USE Yaluk4 AS Yaluk0004
INPUT
  Va[1]:=M1822A
  Va[2]:=M1822B
  Va[3]:=M1822C
  Va[4]:=M1822N
  Vb[1]:=M1823A
  Vb[2]:=M1823B
  Vb[3]:=M1823C
  Vb[4]:=M1823N
DATA
  No_Lin:=16
OUTPUT
  L0016A:=Vfa[1]
  L0016B:=Vfa[2]
  L0016C:=Vfa[3]
  L0016N:=Vfa[4]
  R0016A:=Vfb[1]
  R0016B:=Vfb[2]
  R0016C:=Vfb[3]
  R0016N:=Vfb[4]
ENDUSE
USE Yaluk4 AS Yaluk0004
INPUT
  Va[1]:=M1822A
  Va[2]:=M1822B
  Va[3]:=M1822C
  Va[4]:=M1822N
  Vb[1]:=M1824A
  Vb[2]:=M1824B
  Vb[3]:=M1824C
  Vb[4]:=M1824N
DATA
  No_Lin:=17
OUTPUT
  L0017A:=Vfa[1]
  L0017B:=Vfa[2]
  L0017C:=Vfa[3]
  L0017N:=Vfa[4]
  R0017A:=Vfb[1]
  R0017B:=Vfb[2]
  R0017C:=Vfb[3]
  R0017N:=Vfb[4]
ENDUSE
USE Yaluk4 AS Yaluk0004
INPUT
  Va[1]:=M1824A
  Va[2]:=M1824B
  Va[3]:=M1824C
  Va[4]:=M1824N
  Vb[1]:=M1825A
  Vb[2]:=M1825B
  Vb[3]:=M1825C
  Vb[4]:=M1825N
DATA
  No_Lin:=18
OUTPUT
  L0018A:=Vfa[1]
  L0018B:=Vfa[2]
  L0018C:=Vfa[3]
  L0018N:=Vfa[4]
  R0018A:=Vfb[1]
  R0018B:=Vfb[2]
  R0018C:=Vfb[3]
  R0018N:=Vfb[4]
ENDUSE
USE Yaluk4 AS Yaluk0004
INPUT
  Va[1]:=M1825A
  Va[2]:=M1825B
  Va[3]:=M1825C
  Va[4]:=M1825N
  Vb[1]:=M1826A
  Vb[2]:=M1826B
  Vb[3]:=M1826C
  Vb[4]:=M1826N
DATA
  No_Lin:=19
OUTPUT
  L0019A:=Vfa[1]
  L0019B:=Vfa[2]
  L0019C:=Vfa[3]
  L0019N:=Vfa[4]
  R0019A:=Vfb[1]
  R0019B:=Vfb[2]
  R0019C:=Vfb[3]
  R0019N:=Vfb[4]
ENDUSE
USE Yaluk4 AS Yaluk0004
INPUT
  Va[1]:=M1826A
  Va[2]:=M1826B
  Va[3]:=M1826C
  Va[4]:=M1826N
  Vb[1]:=M1827A
  Vb[2]:=M1827B
  Vb[3]:=M1827C
  Vb[4]:=M1827N
DATA
  No_Lin:=20
OUTPUT
  L0020A:=Vfa[1]
  L0020B:=Vfa[2]
  L0020C:=Vfa[3]
  L0020N:=Vfa[4]
  R0020A:=Vfb[1]
  R0020B:=Vfb[2]
  R0020C:=Vfb[3]
  R0020N:=Vfb[4]
ENDUSE
USE Yaluk4 AS Yaluk0004
INPUT
  Va[1]:=M1827A
  Va[2]:=M1827B
  Va[3]:=M1827C
  Va[4]:=M1827N
  Vb[1]:=M1828A
  Vb[2]:=M1828B
  Vb[3]:=M1828C
  Vb[4]:=M1828N
DATA
  No_Lin:=21
OUTPUT
  L0021A:=Vfa[1]
  L0021B:=Vfa[2]
  L0021C:=Vfa[3]
  L0021N:=Vfa[4]
  R0021A:=Vfb[1]
  R0021B:=Vfb[2]
  R0021C:=Vfb[3]
  R0021N:=Vfb[4]
ENDUSE
USE Yaluk4 AS Yaluk0004
INPUT
  Va[1]:=M1828A
  Va[2]:=M1828B
  Va[3]:=M1828C
  Va[4]:=M1828N
  Vb[1]:=M1829A
  Vb[2]:=M1829B
  Vb[3]:=M1829C
  Vb[4]:=M1829N
DATA
  No_Lin:=22
OUTPUT
  L0022A:=Vfa[1]
  L0022B:=Vfa[2]
  L0022C:=Vfa[3]
  L0022N:=Vfa[4]
  R0022A:=Vfb[1]
  R0022B:=Vfb[2]
  R0022C:=Vfb[3]
  R0022N:=Vfb[4]
ENDUSE
USE Yaluk4 AS Yaluk0004
INPUT
  Va[1]:=M1829A
  Va[2]:=M1829B
  Va[3]:=M1829C
  Va[4]:=M1829N
  Vb[1]:=M1830A
  Vb[2]:=M1830B
  Vb[3]:=M1830C
  Vb[4]:=M1830N
DATA
  No_Lin:=23
OUTPUT
  L0023A:=Vfa[1]
  L0023B:=Vfa[2]
  L0023C:=Vfa[3]
  L0023N:=Vfa[4]
  R0023A:=Vfb[1]
  R0023B:=Vfb[2]
  R0023C:=Vfb[3]
  R0023N:=Vfb[4]
ENDUSE
USE Yaluk4 AS Yaluk0004
INPUT
  Va[1]:=M1830A
  Va[2]:=M1830B
  Va[3]:=M1830C
  Va[4]:=M1830N
  Vb[1]:=M1831A
  Vb[2]:=M1831B
  Vb[3]:=M1831C
  Vb[4]:=M1831N
DATA
  No_Lin:=24
OUTPUT
  L0024A:=Vfa[1]
  L0024B:=Vfa[2]
  L0024C:=Vfa[3]
  L0024N:=Vfa[4]
  R0024A:=Vfb[1]
  R0024B:=Vfb[2]
  R0024C:=Vfb[3]
  R0024N:=Vfb[4]
ENDUSE
USE Yaluk4 AS Yaluk0004
INPUT
  Va[1]:=M1831A
  Va[2]:=M1831B
  Va[3]:=M1831C
  Va[4]:=M1831N
  Vb[1]:=M1832A
  Vb[2]:=M1832B
  Vb[3]:=M1832C
  Vb[4]:=M1832N
DATA
  No_Lin:=25
OUTPUT
  L0025A:=Vfa[1]
  L0025B:=Vfa[2]
  L0025C:=Vfa[3]
  L0025N:=Vfa[4]
  R0025A:=Vfb[1]
  R0025B:=Vfb[2]
  R0025C:=Vfb[3]
  R0025N:=Vfb[4]
ENDUSE
USE Yaluk4 AS Yaluk0004
INPUT
  Va[1]:=M1832A
  Va[2]:=M1832B
  Va[3]:=M1832C
  Va[4]:=M1832N
  Vb[1]:=M1833A
  Vb[2]:=M1833B
  Vb[3]:=M1833C
  Vb[4]:=M1833N
DATA
  No_Lin:=26
OUTPUT
  L0026A:=Vfa[1]
  L0026B:=Vfa[2]
  L0026C:=Vfa[3]
  L0026N:=Vfa[4]
  R0026A:=Vfb[1]
  R0026B:=Vfb[2]
  R0026C:=Vfb[3]
  R0026N:=Vfb[4]
ENDUSE
USE Yaluk4 AS Yaluk0004
INPUT
  Va[1]:=M1833A
  Va[2]:=M1833B
  Va[3]:=M1833C
  Va[4]:=M1833N
  Vb[1]:=M1834A
  Vb[2]:=M1834B
  Vb[3]:=M1834C
  Vb[4]:=M1834N
DATA
  No_Lin:=27
OUTPUT
  L0027A:=Vfa[1]
  L0027B:=Vfa[2]
  L0027C:=Vfa[3]
  L0027N:=Vfa[4]
  R0027A:=Vfb[1]
  R0027B:=Vfb[2]
  R0027C:=Vfb[3]
  R0027N:=Vfb[4]
ENDUSE
USE Yaluk4 AS Yaluk0004
INPUT
  Va[1]:=M1834A
  Va[2]:=M1834B
  Va[3]:=M1834C
  Va[4]:=M1834N
  Vb[1]:=M1835A
  Vb[2]:=M1835B
  Vb[3]:=M1835C
  Vb[4]:=M1835N
DATA
  No_Lin:=28
OUTPUT
  L0028A:=Vfa[1]
  L0028B:=Vfa[2]
  L0028C:=Vfa[3]
  L0028N:=Vfa[4]
  R0028A:=Vfb[1]
  R0028B:=Vfb[2]
  R0028C:=Vfb[3]
  R0028N:=Vfb[4]
ENDUSE
USE Yaluk4 AS Yaluk0004
INPUT
  Va[1]:=M1835A
  Va[2]:=M1835B
  Va[3]:=M1835C
  Va[4]:=M1835N
  Vb[1]:=M1836A
  Vb[2]:=M1836B
  Vb[3]:=M1836C
  Vb[4]:=M1836N
DATA
  No_Lin:=29
OUTPUT
  L0029A:=Vfa[1]
  L0029B:=Vfa[2]
  L0029C:=Vfa[3]
  L0029N:=Vfa[4]
  R0029A:=Vfb[1]
  R0029B:=Vfb[2]
  R0029C:=Vfb[3]
  R0029N:=Vfb[4]
ENDUSE
USE Yaluk4 AS Yaluk0004
INPUT
  Va[1]:=M1836A
  Va[2]:=M1836B
  Va[3]:=M1836C
  Va[4]:=M1836N
  Vb[1]:=M1837A
  Vb[2]:=M1837B
  Vb[3]:=M1837C
  Vb[4]:=M1837N
DATA
  No_Lin:=30
OUTPUT
  L0030A:=Vfa[1]
  L0030B:=Vfa[2]
  L0030C:=Vfa[3]
  L0030N:=Vfa[4]
  R0030A:=Vfb[1]
  R0030B:=Vfb[2]
  R0030C:=Vfb[3]
  R0030N:=Vfb[4]
ENDUSE
USE Yaluk4 AS Yaluk0004
INPUT
  Va[1]:=M1837A
  Va[2]:=M1837B
  Va[3]:=M1837C
  Va[4]:=M1837N
  Vb[1]:=M1838A
  Vb[2]:=M1838B
  Vb[3]:=M1838C
  Vb[4]:=M1838N
DATA
  No_Lin:=31
OUTPUT
  L0031A:=Vfa[1]
  L0031B:=Vfa[2]
  L0031C:=Vfa[3]
  L0031N:=Vfa[4]
  R0031A:=Vfb[1]
  R0031B:=Vfb[2]
  R0031C:=Vfb[3]
  R0031N:=Vfb[4]
ENDUSE
USE Yaluk4 AS Yaluk0004
INPUT
  Va[1]:=M1838A
  Va[2]:=M1838B
  Va[3]:=M1838C
  Va[4]:=M1838N
  Vb[1]:=M1839A
  Vb[2]:=M1839B
  Vb[3]:=M1839C
  Vb[4]:=M1839N
DATA
  No_Lin:=32
OUTPUT
  L0032A:=Vfa[1]
  L0032B:=Vfa[2]
  L0032C:=Vfa[3]
  L0032N:=Vfa[4]
  R0032A:=Vfb[1]
  R0032B:=Vfb[2]
  R0032C:=Vfb[3]
  R0032N:=Vfb[4]
ENDUSE
USE Yaluk4 AS Yaluk0004
INPUT
  Va[1]:=M1839A
  Va[2]:=M1839B
  Va[3]:=M1839C
  Va[4]:=M1839N
  Vb[1]:=M1840A
  Vb[2]:=M1840B
  Vb[3]:=M1840C
  Vb[4]:=M1840N
DATA
  No_Lin:=33
OUTPUT
  L0033A:=Vfa[1]
  L0033B:=Vfa[2]
  L0033C:=Vfa[3]
  L0033N:=Vfa[4]
  R0033A:=Vfb[1]
  R0033B:=Vfb[2]
  R0033C:=Vfb[3]
  R0033N:=Vfb[4]
ENDUSE
USE Yaluk4 AS Yaluk0004
INPUT
  Va[1]:=M1840A
  Va[2]:=M1840B
  Va[3]:=M1840C
  Va[4]:=M1840N
  Vb[1]:=M1841A
  Vb[2]:=M1841B
  Vb[3]:=M1841C
  Vb[4]:=M1841N
DATA
  No_Lin:=34
OUTPUT
  L0034A:=Vfa[1]
  L0034B:=Vfa[2]
  L0034C:=Vfa[3]
  L0034N:=Vfa[4]
  R0034A:=Vfb[1]
  R0034B:=Vfb[2]
  R0034C:=Vfb[3]
  R0034N:=Vfb[4]
ENDUSE
USE Yaluk4 AS Yaluk0004
INPUT
  Va[1]:=M1841A
  Va[2]:=M1841B
  Va[3]:=M1841C
  Va[4]:=M1841N
  Vb[1]:=M1842A
  Vb[2]:=M1842B
  Vb[3]:=M1842C
  Vb[4]:=M1842N
DATA
  No_Lin:=35
OUTPUT
  L0035A:=Vfa[1]
  L0035B:=Vfa[2]
  L0035C:=Vfa[3]
  L0035N:=Vfa[4]
  R0035A:=Vfb[1]
  R0035B:=Vfb[2]
  R0035C:=Vfb[3]
  R0035N:=Vfb[4]
ENDUSE
USE Yaluk4 AS Yaluk0004
INPUT
  Va[1]:=M1842A
  Va[2]:=M1842B
  Va[3]:=M1842C
  Va[4]:=M1842N
  Vb[1]:=M1843A
  Vb[2]:=M1843B
  Vb[3]:=M1843C
  Vb[4]:=M1843N
DATA
  No_Lin:=36
OUTPUT
  L0036A:=Vfa[1]
  L0036B:=Vfa[2]
  L0036C:=Vfa[3]
  L0036N:=Vfa[4]
  R0036A:=Vfb[1]
  R0036B:=Vfb[2]
  R0036C:=Vfb[3]
  R0036N:=Vfb[4]
ENDUSE
USE Yaluk4 AS Yaluk0004
INPUT
  Va[1]:=M1843A
  Va[2]:=M1843B
  Va[3]:=M1843C
  Va[4]:=M1843N
  Vb[1]:=M1844A
  Vb[2]:=M1844B
  Vb[3]:=M1844C
  Vb[4]:=M1844N
DATA
  No_Lin:=37
OUTPUT
  L0037A:=Vfa[1]
  L0037B:=Vfa[2]
  L0037C:=Vfa[3]
  L0037N:=Vfa[4]
  R0037A:=Vfb[1]
  R0037B:=Vfb[2]
  R0037C:=Vfb[3]
  R0037N:=Vfb[4]
ENDUSE
USE Yaluk4 AS Yaluk0004
INPUT
  Va[1]:=M1844A
  Va[2]:=M1844B
  Va[3]:=M1844C
  Va[4]:=M1844N
  Vb[1]:=M1845A
  Vb[2]:=M1845B
  Vb[3]:=M1845C
  Vb[4]:=M1845N
DATA
  No_Lin:=38
OUTPUT
  L0038A:=Vfa[1]
  L0038B:=Vfa[2]
  L0038C:=Vfa[3]
  L0038N:=Vfa[4]
  R0038A:=Vfb[1]
  R0038B:=Vfb[2]
  R0038C:=Vfb[3]
  R0038N:=Vfb[4]
ENDUSE
USE Yaluk4 AS Yaluk0004
INPUT
  Va[1]:=M1845A
  Va[2]:=M1845B
  Va[3]:=M1845C
  Va[4]:=M1845N
  Vb[1]:=M1846A
  Vb[2]:=M1846B
  Vb[3]:=M1846C
  Vb[4]:=M1846N
DATA
  No_Lin:=39
OUTPUT
  L0039A:=Vfa[1]
  L0039B:=Vfa[2]
  L0039C:=Vfa[3]
  L0039N:=Vfa[4]
  R0039A:=Vfb[1]
  R0039B:=Vfb[2]
  R0039C:=Vfb[3]
  R0039N:=Vfb[4]
ENDUSE
USE Yaluk4 AS Yaluk0004
INPUT
  Va[1]:=M1846A
  Va[2]:=M1846B
  Va[3]:=M1846C
  Va[4]:=M1846N
  Vb[1]:=M1847A
  Vb[2]:=M1847B
  Vb[3]:=M1847C
  Vb[4]:=M1847N
DATA
  No_Lin:=40
OUTPUT
  L0040A:=Vfa[1]
  L0040B:=Vfa[2]
  L0040C:=Vfa[3]
  L0040N:=Vfa[4]