BEGIN NEW DATA CASE
C --------------------------------------------------------
C Generated by YALUK DRAW 2.0
C Developed by: Ernesto Pérez G
C eperezg@unal.edu.co
C Universidad Nacional de Colombia
C File Created on: 12/12/2020 10:41:53 PM
C --------------------------------------------------------
C Project Name:L72_502_circuitC7.1
C   
C  dT  >< Tmax >< Xopt >< Copt > 
.5000E-7.3500E-4
  999999     100       0       0       1       0       0       0       0
/MODELS
MODELS
INPUT
M0055A  {v(N0055A)}
M0055B  {v(N0055B)}
M0055C  {v(N0055C)}
M0055N  {v(N0055N)}
M0056A  {v(N0056A)}
M0056B  {v(N0056B)}
M0056C  {v(N0056C)}
M0056N  {v(N0056N)}
M0057A  {v(N0057A)}
M0057B  {v(N0057B)}
M0057C  {v(N0057C)}
M0057N  {v(N0057N)}
M0058A  {v(N0058A)}
M0058B  {v(N0058B)}
M0058C  {v(N0058C)}
M0058N  {v(N0058N)}
M0059A  {v(N0059A)}
M0059B  {v(N0059B)}
M0059C  {v(N0059C)}
M0059N  {v(N0059N)}
M0060A  {v(N0060A)}
M0060B  {v(N0060B)}
M0060C  {v(N0060C)}
M0060N  {v(N0060N)}
M0061A  {v(N0061A)}
M0061B  {v(N0061B)}
M0061C  {v(N0061C)}
M0061N  {v(N0061N)}
M0062A  {v(N0062A)}
M0062B  {v(N0062B)}
M0062C  {v(N0062C)}
M0062N  {v(N0062N)}
M0063A  {v(N0063A)}
M0063B  {v(N0063B)}
M0063C  {v(N0063C)}
M0063N  {v(N0063N)}
M0064A  {v(N0064A)}
M0064B  {v(N0064B)}
M0064C  {v(N0064C)}
M0064N  {v(N0064N)}
M0065A  {v(N0065A)}
M0065B  {v(N0065B)}
M0065C  {v(N0065C)}
M0065N  {v(N0065N)}
M0066A  {v(N0066A)}
M0066B  {v(N0066B)}
M0066C  {v(N0066C)}
M0066N  {v(N0066N)}
M0067A  {v(N0067A)}
M0067B  {v(N0067B)}
M0067C  {v(N0067C)}
M0067N  {v(N0067N)}
M0068A  {v(N0068A)}
M0068B  {v(N0068B)}
M0068C  {v(N0068C)}
M0068N  {v(N0068N)}
M0069A  {v(N0069A)}
M0069B  {v(N0069B)}
M0069C  {v(N0069C)}
M0069N  {v(N0069N)}
M0070A  {v(N0070A)}
M0070B  {v(N0070B)}
M0070C  {v(N0070C)}
M0070N  {v(N0070N)}
M0071A  {v(N0071A)}
M0071B  {v(N0071B)}
M0071C  {v(N0071C)}
M0071N  {v(N0071N)}
M0072A  {v(N0072A)}
M0072B  {v(N0072B)}
M0072C  {v(N0072C)}
M0072N  {v(N0072N)}
M0073A  {v(N0073A)}
M0073B  {v(N0073B)}
M0073C  {v(N0073C)}
M0073N  {v(N0073N)}
M0074A  {v(N0074A)}
M0074B  {v(N0074B)}
M0074C  {v(N0074C)}
M0074N  {v(N0074N)}
M0075A  {v(N0075A)}
M0075B  {v(N0075B)}
M0075C  {v(N0075C)}
M0075N  {v(N0075N)}
M0076A  {v(N0076A)}
M0076B  {v(N0076B)}
M0076C  {v(N0076C)}
M0076N  {v(N0076N)}
M0077A  {v(N0077A)}
M0077B  {v(N0077B)}
M0077C  {v(N0077C)}
M0077N  {v(N0077N)}
M0078A  {v(N0078A)}
M0078B  {v(N0078B)}
M0078C  {v(N0078C)}
M0078N  {v(N0078N)}
M0079A  {v(N0079A)}
M0079B  {v(N0079B)}
M0079C  {v(N0079C)}
M0079N  {v(N0079N)}
M0080A  {v(N0080A)}
M0080B  {v(N0080B)}
M0080C  {v(N0080C)}
M0080N  {v(N0080N)}
M0081A  {v(N0081A)}
M0081B  {v(N0081B)}
M0081C  {v(N0081C)}
M0081N  {v(N0081N)}
M0082A  {v(N0082A)}
M0082B  {v(N0082B)}
M0082C  {v(N0082C)}
M0082N  {v(N0082N)}
M0083A  {v(N0083A)}
M0083B  {v(N0083B)}
M0083C  {v(N0083C)}
M0083N  {v(N0083N)}
M0084A  {v(N0084A)}
M0084B  {v(N0084B)}
M0084C  {v(N0084C)}
M0084N  {v(N0084N)}
M0085A  {v(N0085A)}
M0085B  {v(N0085B)}
M0085C  {v(N0085C)}
M0085N  {v(N0085N)}
M0086A  {v(N0086A)}
M0086B  {v(N0086B)}
M0086C  {v(N0086C)}
M0086N  {v(N0086N)}
M0087A  {v(N0087A)}
M0087B  {v(N0087B)}
M0087C  {v(N0087C)}
M0087N  {v(N0087N)}
M0088A  {v(N0088A)}
M0088B  {v(N0088B)}
M0088C  {v(N0088C)}
M0088N  {v(N0088N)}
M0089A  {v(N0089A)}
M0089B  {v(N0089B)}
M0089C  {v(N0089C)}
M0089N  {v(N0089N)}
M0090A  {v(N0090A)}
M0090B  {v(N0090B)}
M0090C  {v(N0090C)}
M0090N  {v(N0090N)}
M0091A  {v(N0091A)}
M0091B  {v(N0091B)}
M0091C  {v(N0091C)}
M0091N  {v(N0091N)}
M0092A  {v(N0092A)}
M0092B  {v(N0092B)}
M0092C  {v(N0092C)}
M0092N  {v(N0092N)}
M0112A  {v(N0112A)}
M0112B  {v(N0112B)}
M0112C  {v(N0112C)}
M0112N  {v(N0112N)}
M0113A  {v(N0113A)}
M0113B  {v(N0113B)}
M0113C  {v(N0113C)}
M0113N  {v(N0113N)}
M0114A  {v(N0114A)}
M0114B  {v(N0114B)}
M0114C  {v(N0114C)}
M0114N  {v(N0114N)}
M0115A  {v(N0115A)}
M0115B  {v(N0115B)}
M0115C  {v(N0115C)}
M0115N  {v(N0115N)}
M0116A  {v(N0116A)}
M0116B  {v(N0116B)}
M0116C  {v(N0116C)}
M0116N  {v(N0116N)}
M0117A  {v(N0117A)}
M0117B  {v(N0117B)}
M0117C  {v(N0117C)}
M0117N  {v(N0117N)}
M0118A  {v(N0118A)}
M0118B  {v(N0118B)}
M0118C  {v(N0118C)}
M0118N  {v(N0118N)}
M0119A  {v(N0119A)}
M0119B  {v(N0119B)}
M0119C  {v(N0119C)}
M0119N  {v(N0119N)}
M0120A  {v(N0120A)}
M0120B  {v(N0120B)}
M0120C  {v(N0120C)}
M0120N  {v(N0120N)}
M0121A  {v(N0121A)}
M0121B  {v(N0121B)}
M0121C  {v(N0121C)}
M0121N  {v(N0121N)}
M0122A  {v(N0122A)}
M0122B  {v(N0122B)}
M0122C  {v(N0122C)}
M0122N  {v(N0122N)}
M0123A  {v(N0123A)}
M0123B  {v(N0123B)}
M0123C  {v(N0123C)}
M0123N  {v(N0123N)}
M0124A  {v(N0124A)}
M0124B  {v(N0124B)}
M0124C  {v(N0124C)}
M0124N  {v(N0124N)}
M0125A  {v(N0125A)}
M0125B  {v(N0125B)}
M0125C  {v(N0125C)}
M0125N  {v(N0125N)}
M0126A  {v(N0126A)}
M0126B  {v(N0126B)}
M0126C  {v(N0126C)}
M0126N  {v(N0126N)}
M0127A  {v(N0127A)}
M0127B  {v(N0127B)}
M0127C  {v(N0127C)}
M0127N  {v(N0127N)}
M0128A  {v(N0128A)}
M0128B  {v(N0128B)}
M0128C  {v(N0128C)}
M0128N  {v(N0128N)}
M0129A  {v(N0129A)}
M0129B  {v(N0129B)}
M0129C  {v(N0129C)}
M0129N  {v(N0129N)}
M0130A  {v(N0130A)}
M0130B  {v(N0130B)}
M0130C  {v(N0130C)}
M0130N  {v(N0130N)}
M0131A  {v(N0131A)}
M0131B  {v(N0131B)}
M0131C  {v(N0131C)}
M0131N  {v(N0131N)}
M0132A  {v(N0132A)}
M0132B  {v(N0132B)}
M0132C  {v(N0132C)}
M0132N  {v(N0132N)}
M0133A  {v(N0133A)}
M0133B  {v(N0133B)}
M0133C  {v(N0133C)}
M0133N  {v(N0133N)}
M0134A  {v(N0134A)}
M0134B  {v(N0134B)}
M0134C  {v(N0134C)}
M0134N  {v(N0134N)}
M0135A  {v(N0135A)}
M0135B  {v(N0135B)}
M0135C  {v(N0135C)}
M0135N  {v(N0135N)}
M0136A  {v(N0136A)}
M0136B  {v(N0136B)}
M0136C  {v(N0136C)}
M0136N  {v(N0136N)}
M0137A  {v(N0137A)}
M0137B  {v(N0137B)}
M0137C  {v(N0137C)}
M0137N  {v(N0137N)}
M0138A  {v(N0138A)}
M0138B  {v(N0138B)}
M0138C  {v(N0138C)}
M0138N  {v(N0138N)}
M0139A  {v(N0139A)}
M0139B  {v(N0139B)}
M0139C  {v(N0139C)}
M0139N  {v(N0139N)}
M0140A  {v(N0140A)}
M0140B  {v(N0140B)}
M0140C  {v(N0140C)}
M0140N  {v(N0140N)}
M0141A  {v(N0141A)}
M0141B  {v(N0141B)}
M0141C  {v(N0141C)}
M0141N  {v(N0141N)}
M0142A  {v(N0142A)}
M0142B  {v(N0142B)}
M0142C  {v(N0142C)}
M0142N  {v(N0142N)}
M0143A  {v(N0143A)}
M0143B  {v(N0143B)}
M0143C  {v(N0143C)}
M0143N  {v(N0143N)}
M0144A  {v(N0144A)}
M0144B  {v(N0144B)}
M0144C  {v(N0144C)}
M0144N  {v(N0144N)}
M0145A  {v(N0145A)}
M0145B  {v(N0145B)}
M0145C  {v(N0145C)}
M0145N  {v(N0145N)}
M0146A  {v(N0146A)}
M0146B  {v(N0146B)}
M0146C  {v(N0146C)}
M0146N  {v(N0146N)}
M0147A  {v(N0147A)}
M0147B  {v(N0147B)}
M0147C  {v(N0147C)}
M0147N  {v(N0147N)}
M0148A  {v(N0148A)}
M0148B  {v(N0148B)}
M0148C  {v(N0148C)}
M0148N  {v(N0148N)}
M0149A  {v(N0149A)}
M0149B  {v(N0149B)}
M0149C  {v(N0149C)}
M0149N  {v(N0149N)}
M0150A  {v(N0150A)}
M0150B  {v(N0150B)}
M0150C  {v(N0150C)}
M0150N  {v(N0150N)}
M0151A  {v(N0151A)}
M0151B  {v(N0151B)}
M0151C  {v(N0151C)}
M0151N  {v(N0151N)}
M0152A  {v(N0152A)}
M0152B  {v(N0152B)}
M0152C  {v(N0152C)}
M0152N  {v(N0152N)}
M0153A  {v(N0153A)}
M0153B  {v(N0153B)}
M0153C  {v(N0153C)}
M0153N  {v(N0153N)}
M0154A  {v(N0154A)}
M0154B  {v(N0154B)}
M0154C  {v(N0154C)}
M0154N  {v(N0154N)}
M0155A  {v(N0155A)}
M0155B  {v(N0155B)}
M0155C  {v(N0155C)}
M0155N  {v(N0155N)}
M0156A  {v(N0156A)}
M0156B  {v(N0156B)}
M0156C  {v(N0156C)}
M0156N  {v(N0156N)}
M0157A  {v(N0157A)}
M0157B  {v(N0157B)}
M0157C  {v(N0157C)}
M0157N  {v(N0157N)}
M0158A  {v(N0158A)}
M0158B  {v(N0158B)}
M0158C  {v(N0158C)}
M0158N  {v(N0158N)}
M0159A  {v(N0159A)}
M0159B  {v(N0159B)}
M0159C  {v(N0159C)}
M0159N  {v(N0159N)}
M0160A  {v(N0160A)}
M0160B  {v(N0160B)}
M0160C  {v(N0160C)}
M0160N  {v(N0160N)}
M0161A  {v(N0161A)}
M0161B  {v(N0161B)}
M0161C  {v(N0161C)}
M0161N  {v(N0161N)}
M0162A  {v(N0162A)}
M0162B  {v(N0162B)}
M0162C  {v(N0162C)}
M0162N  {v(N0162N)}
M0163A  {v(N0163A)}
M0163B  {v(N0163B)}
M0163C  {v(N0163C)}
M0163N  {v(N0163N)}
M0164A  {v(N0164A)}
M0164B  {v(N0164B)}
M0164C  {v(N0164C)}
M0164N  {v(N0164N)}
M0165A  {v(N0165A)}
M0165B  {v(N0165B)}
M0165C  {v(N0165C)}
M0165N  {v(N0165N)}
M0166A  {v(N0166A)}
M0166B  {v(N0166B)}
M0166C  {v(N0166C)}
M0166N  {v(N0166N)}
M0167A  {v(N0167A)}
M0167B  {v(N0167B)}
M0167C  {v(N0167C)}
M0167N  {v(N0167N)}
M0168A  {v(N0168A)}
M0168B  {v(N0168B)}
M0168C  {v(N0168C)}
M0168N  {v(N0168N)}
M0169A  {v(N0169A)}
M0169B  {v(N0169B)}
M0169C  {v(N0169C)}
M0169N  {v(N0169N)}
M0170A  {v(N0170A)}
M0170B  {v(N0170B)}
M0170C  {v(N0170C)}
M0170N  {v(N0170N)}
M0171A  {v(N0171A)}
M0171B  {v(N0171B)}
M0171C  {v(N0171C)}
M0171N  {v(N0171N)}
M0172A  {v(N0172A)}
M0172B  {v(N0172B)}
M0172C  {v(N0172C)}
M0172N  {v(N0172N)}
M0173A  {v(N0173A)}
M0173B  {v(N0173B)}
M0173C  {v(N0173C)}
M0173N  {v(N0173N)}
M0174A  {v(N0174A)}
M0174B  {v(N0174B)}
M0174C  {v(N0174C)}
M0174N  {v(N0174N)}
M0175A  {v(N0175A)}
M0175B  {v(N0175B)}
M0175C  {v(N0175C)}
M0175N  {v(N0175N)}
M0176A  {v(N0176A)}
M0176B  {v(N0176B)}
M0176C  {v(N0176C)}
M0176N  {v(N0176N)}
M0177A  {v(N0177A)}
M0177B  {v(N0177B)}
M0177C  {v(N0177C)}
M0177N  {v(N0177N)}
M0178A  {v(N0178A)}
M0178B  {v(N0178B)}
M0178C  {v(N0178C)}
M0178N  {v(N0178N)}
M0179A  {v(N0179A)}
M0179B  {v(N0179B)}
M0179C  {v(N0179C)}
M0179N  {v(N0179N)}
M0180A  {v(N0180A)}
M0180B  {v(N0180B)}
M0180C  {v(N0180C)}
M0180N  {v(N0180N)}
M0181A  {v(N0181A)}
M0181B  {v(N0181B)}
M0181C  {v(N0181C)}
M0181N  {v(N0181N)}
M0182A  {v(N0182A)}
M0182B  {v(N0182B)}
M0182C  {v(N0182C)}
M0182N  {v(N0182N)}
M0183A  {v(N0183A)}
M0183B  {v(N0183B)}
M0183C  {v(N0183C)}
M0183N  {v(N0183N)}
M0184A  {v(N0184A)}
M0184B  {v(N0184B)}
M0184C  {v(N0184C)}
M0184N  {v(N0184N)}
M0185A  {v(N0185A)}
M0185B  {v(N0185B)}
M0185C  {v(N0185C)}
M0185N  {v(N0185N)}
M0186A  {v(N0186A)}
M0186B  {v(N0186B)}
M0186C  {v(N0186C)}
M0186N  {v(N0186N)}
M0187A  {v(N0187A)}
M0187B  {v(N0187B)}
M0187C  {v(N0187C)}
M0187N  {v(N0187N)}
M0188A  {v(N0188A)}
M0188B  {v(N0188B)}
M0188C  {v(N0188C)}
M0188N  {v(N0188N)}
M0189A  {v(N0189A)}
M0189B  {v(N0189B)}
M0189C  {v(N0189C)}
M0189N  {v(N0189N)}
M0190A  {v(N0190A)}
M0190B  {v(N0190B)}
M0190C  {v(N0190C)}
M0190N  {v(N0190N)}
M0191A  {v(N0191A)}
M0191B  {v(N0191B)}
M0191C  {v(N0191C)}
M0191N  {v(N0191N)}
M0192A  {v(N0192A)}
M0192B  {v(N0192B)}
M0192C  {v(N0192C)}
M0192N  {v(N0192N)}
M0193A  {v(N0193A)}
M0193B  {v(N0193B)}
M0193C  {v(N0193C)}
M0193N  {v(N0193N)}
M0194A  {v(N0194A)}
M0194B  {v(N0194B)}
M0194C  {v(N0194C)}
M0194N  {v(N0194N)}
M0195A  {v(N0195A)}
M0195B  {v(N0195B)}
M0195C  {v(N0195C)}
M0195N  {v(N0195N)}
M0196A  {v(N0196A)}
M0196B  {v(N0196B)}
M0196C  {v(N0196C)}
M0196N  {v(N0196N)}
M0197A  {v(N0197A)}
M0197B  {v(N0197B)}
M0197C  {v(N0197C)}
M0197N  {v(N0197N)}
M0198A  {v(N0198A)}
M0198B  {v(N0198B)}
M0198C  {v(N0198C)}
M0198N  {v(N0198N)}
M0199A  {v(N0199A)}
M0199B  {v(N0199B)}
M0199C  {v(N0199C)}
M0199N  {v(N0199N)}
M0200A  {v(N0200A)}
M0200B  {v(N0200B)}
M0200C  {v(N0200C)}
M0200N  {v(N0200N)}
M0201A  {v(N0201A)}
M0201B  {v(N0201B)}
M0201C  {v(N0201C)}
M0201N  {v(N0201N)}
M0202A  {v(N0202A)}
M0202B  {v(N0202B)}
M0202C  {v(N0202C)}
M0202N  {v(N0202N)}
M0203A  {v(N0203A)}
M0203B  {v(N0203B)}
M0203C  {v(N0203C)}
M0203N  {v(N0203N)}
M0204A  {v(N0204A)}
M0204B  {v(N0204B)}
M0204C  {v(N0204C)}
M0204N  {v(N0204N)}
M0205A  {v(N0205A)}
M0205B  {v(N0205B)}
M0205C  {v(N0205C)}
M0205N  {v(N0205N)}
M0206A  {v(N0206A)}
M0206B  {v(N0206B)}
M0206C  {v(N0206C)}
M0206N  {v(N0206N)}
M0207A  {v(N0207A)}
M0207B  {v(N0207B)}
M0207C  {v(N0207C)}
M0207N  {v(N0207N)}
M0208A  {v(N0208A)}
M0208B  {v(N0208B)}
M0208C  {v(N0208C)}
M0208N  {v(N0208N)}
M0209A  {v(N0209A)}
M0209B  {v(N0209B)}
M0209C  {v(N0209C)}
M0209N  {v(N0209N)}
M0210A  {v(N0210A)}
M0210B  {v(N0210B)}
M0210C  {v(N0210C)}
M0210N  {v(N0210N)}
M0211A  {v(N0211A)}
M0211B  {v(N0211B)}
M0211C  {v(N0211C)}
M0211N  {v(N0211N)}
M0212A  {v(N0212A)}
M0212B  {v(N0212B)}
M0212C  {v(N0212C)}
M0212N  {v(N0212N)}
M0213A  {v(N0213A)}
M0213B  {v(N0213B)}
M0213C  {v(N0213C)}
M0213N  {v(N0213N)}
M0214A  {v(N0214A)}
M0214B  {v(N0214B)}
M0214C  {v(N0214C)}
M0214N  {v(N0214N)}
M0215A  {v(N0215A)}
M0215B  {v(N0215B)}
M0215C  {v(N0215C)}
M0215N  {v(N0215N)}
M0216A  {v(N0216A)}
M0216B  {v(N0216B)}
M0216C  {v(N0216C)}
M0216N  {v(N0216N)}
M0217A  {v(N0217A)}
M0217B  {v(N0217B)}
M0217C  {v(N0217C)}
M0217N  {v(N0217N)}
M0218A  {v(N0218A)}
M0218B  {v(N0218B)}
M0218C  {v(N0218C)}
M0218N  {v(N0218N)}
M0219A  {v(N0219A)}
M0219B  {v(N0219B)}
M0219C  {v(N0219C)}
M0219N  {v(N0219N)}
M0220A  {v(N0220A)}
M0220B  {v(N0220B)}
M0220C  {v(N0220C)}
M0220N  {v(N0220N)}
M0221A  {v(N0221A)}
M0221B  {v(N0221B)}
M0221C  {v(N0221C)}
M0221N  {v(N0221N)}
M0222A  {v(N0222A)}
M0222B  {v(N0222B)}
M0222C  {v(N0222C)}
M0222N  {v(N0222N)}
M0223A  {v(N0223A)}
M0223B  {v(N0223B)}
M0223C  {v(N0223C)}
M0223N  {v(N0223N)}
M0224A  {v(N0224A)}
M0224B  {v(N0224B)}
M0224C  {v(N0224C)}
M0224N  {v(N0224N)}
M0225A  {v(N0225A)}
M0225B  {v(N0225B)}
M0225C  {v(N0225C)}
M0225N  {v(N0225N)}
M0226A  {v(N0226A)}
M0226B  {v(N0226B)}
M0226C  {v(N0226C)}
M0226N  {v(N0226N)}
M0227A  {v(N0227A)}
M0227B  {v(N0227B)}
M0227C  {v(N0227C)}
M0227N  {v(N0227N)}
M0228A  {v(N0228A)}
M0228B  {v(N0228B)}
M0228C  {v(N0228C)}
M0228N  {v(N0228N)}
M0229A  {v(N0229A)}
M0229B  {v(N0229B)}
M0229C  {v(N0229C)}
M0229N  {v(N0229N)}
M0230A  {v(N0230A)}
M0230B  {v(N0230B)}
M0230C  {v(N0230C)}
M0230N  {v(N0230N)}
M0231A  {v(N0231A)}
M0231B  {v(N0231B)}
M0231C  {v(N0231C)}
M0231N  {v(N0231N)}
M0232A  {v(N0232A)}
M0232B  {v(N0232B)}
M0232C  {v(N0232C)}
M0232N  {v(N0232N)}
M0233A  {v(N0233A)}
M0233B  {v(N0233B)}
M0233C  {v(N0233C)}
M0233N  {v(N0233N)}
M0234A  {v(N0234A)}
M0234B  {v(N0234B)}
M0234C  {v(N0234C)}
M0234N  {v(N0234N)}
M0235A  {v(N0235A)}
M0235B  {v(N0235B)}
M0235C  {v(N0235C)}
M0235N  {v(N0235N)}
M0236A  {v(N0236A)}
M0236B  {v(N0236B)}
M0236C  {v(N0236C)}
M0236N  {v(N0236N)}
M0237A  {v(N0237A)}
M0237B  {v(N0237B)}
M0237C  {v(N0237C)}
M0237N  {v(N0237N)}
M0238A  {v(N0238A)}
M0238B  {v(N0238B)}
M0238C  {v(N0238C)}
M0238N  {v(N0238N)}
M0239A  {v(N0239A)}
M0239B  {v(N0239B)}
M0239C  {v(N0239C)}
M0239N  {v(N0239N)}
M0240A  {v(N0240A)}
M0240B  {v(N0240B)}
M0240C  {v(N0240C)}
M0240N  {v(N0240N)}
M0241A  {v(N0241A)}
M0241B  {v(N0241B)}
M0241C  {v(N0241C)}
M0241N  {v(N0241N)}
M0242A  {v(N0242A)}
M0242B  {v(N0242B)}
M0242C  {v(N0242C)}
M0242N  {v(N0242N)}
M0243A  {v(N0243A)}
M0243B  {v(N0243B)}
M0243C  {v(N0243C)}
M0243N  {v(N0243N)}
M0471A  {v(N0471A)}
M0471B  {v(N0471B)}
M0471C  {v(N0471C)}
M0471N  {v(N0471N)}
M0472A  {v(N0472A)}
M0472B  {v(N0472B)}
M0472C  {v(N0472C)}
M0472N  {v(N0472N)}
M0473A  {v(N0473A)}
M0473B  {v(N0473B)}
M0473C  {v(N0473C)}
M0473N  {v(N0473N)}
M0474A  {v(N0474A)}
M0474B  {v(N0474B)}
M0474C  {v(N0474C)}
M0474N  {v(N0474N)}
M0475A  {v(N0475A)}
M0475B  {v(N0475B)}
M0475C  {v(N0475C)}
M0475N  {v(N0475N)}
M0476A  {v(N0476A)}
M0476B  {v(N0476B)}
M0476C  {v(N0476C)}
M0476N  {v(N0476N)}
M0477A  {v(N0477A)}
M0477B  {v(N0477B)}
M0477C  {v(N0477C)}
M0477N  {v(N0477N)}
M0478A  {v(N0478A)}
M0478B  {v(N0478B)}
M0478C  {v(N0478C)}
M0478N  {v(N0478N)}
M0479A  {v(N0479A)}
M0479B  {v(N0479B)}
M0479C  {v(N0479C)}
M0479N  {v(N0479N)}
M0480A  {v(N0480A)}
M0480B  {v(N0480B)}
M0480C  {v(N0480C)}
M0480N  {v(N0480N)}
M0481A  {v(N0481A)}
M0481B  {v(N0481B)}
M0481C  {v(N0481C)}
M0481N  {v(N0481N)}
M0482A  {v(N0482A)}
M0482B  {v(N0482B)}
M0482C  {v(N0482C)}
M0482N  {v(N0482N)}
M0483A  {v(N0483A)}
M0483B  {v(N0483B)}
M0483C  {v(N0483C)}
M0483N  {v(N0483N)}
M0484A  {v(N0484A)}
M0484B  {v(N0484B)}
M0484C  {v(N0484C)}
M0484N  {v(N0484N)}
M0485A  {v(N0485A)}
M0485B  {v(N0485B)}
M0485C  {v(N0485C)}
M0485N  {v(N0485N)}
M0585A  {v(N0585A)}
M0585B  {v(N0585B)}
M0585C  {v(N0585C)}
M0585N  {v(N0585N)}
M0586A  {v(N0586A)}
M0586B  {v(N0586B)}
M0586C  {v(N0586C)}
M0586N  {v(N0586N)}
M0587A  {v(N0587A)}
M0587B  {v(N0587B)}
M0587C  {v(N0587C)}
M0587N  {v(N0587N)}
M0588A  {v(N0588A)}
M0588B  {v(N0588B)}
M0588C  {v(N0588C)}
M0588N  {v(N0588N)}
M0589A  {v(N0589A)}
M0589B  {v(N0589B)}
M0589C  {v(N0589C)}
M0589N  {v(N0589N)}
M0590A  {v(N0590A)}
M0590B  {v(N0590B)}
M0590C  {v(N0590C)}
M0590N  {v(N0590N)}
M0591A  {v(N0591A)}
M0591B  {v(N0591B)}
M0591C  {v(N0591C)}
M0591N  {v(N0591N)}
M0592A  {v(N0592A)}
M0592B  {v(N0592B)}
M0592C  {v(N0592C)}
M0592N  {v(N0592N)}
M0593A  {v(N0593A)}
M0593B  {v(N0593B)}
M0593C  {v(N0593C)}
M0593N  {v(N0593N)}
M0594A  {v(N0594A)}
M0594B  {v(N0594B)}
M0594C  {v(N0594C)}
M0594N  {v(N0594N)}
M0595A  {v(N0595A)}
M0595B  {v(N0595B)}
M0595C  {v(N0595C)}
M0595N  {v(N0595N)}
M0596A  {v(N0596A)}
M0596B  {v(N0596B)}
M0596C  {v(N0596C)}
M0596N  {v(N0596N)}
M0597A  {v(N0597A)}
M0597B  {v(N0597B)}
M0597C  {v(N0597C)}
M0597N  {v(N0597N)}
M0598A  {v(N0598A)}
M0598B  {v(N0598B)}
M0598C  {v(N0598C)}
M0598N  {v(N0598N)}
M0599A  {v(N0599A)}
M0599B  {v(N0599B)}
M0599C  {v(N0599C)}
M0599N  {v(N0599N)}
M0600A  {v(N0600A)}
M0600B  {v(N0600B)}
M0600C  {v(N0600C)}
M0600N  {v(N0600N)}
M0601A  {v(N0601A)}
M0601B  {v(N0601B)}
M0601C  {v(N0601C)}
M0601N  {v(N0601N)}
M0602A  {v(N0602A)}
M0602B  {v(N0602B)}
M0602C  {v(N0602C)}
M0602N  {v(N0602N)}
M0603A  {v(N0603A)}
M0603B  {v(N0603B)}
M0603C  {v(N0603C)}
M0603N  {v(N0603N)}
M0604A  {v(N0604A)}
M0604B  {v(N0604B)}
M0604C  {v(N0604C)}
M0604N  {v(N0604N)}
M0605A  {v(N0605A)}
M0605B  {v(N0605B)}
M0605C  {v(N0605C)}
M0605N  {v(N0605N)}
M0606A  {v(N0606A)}
M0606B  {v(N0606B)}
M0606C  {v(N0606C)}
M0606N  {v(N0606N)}
M0607A  {v(N0607A)}
M0607B  {v(N0607B)}
M0607C  {v(N0607C)}
M0607N  {v(N0607N)}
M0608A  {v(N0608A)}
M0608B  {v(N0608B)}
M0608C  {v(N0608C)}
M0608N  {v(N0608N)}
M0609A  {v(N0609A)}
M0609B  {v(N0609B)}
M0609C  {v(N0609C)}
M0609N  {v(N0609N)}
M0610A  {v(N0610A)}
M0610B  {v(N0610B)}
M0610C  {v(N0610C)}
M0610N  {v(N0610N)}
M0611A  {v(N0611A)}
M0611B  {v(N0611B)}
M0611C  {v(N0611C)}
M0611N  {v(N0611N)}
M0612A  {v(N0612A)}
M0612B  {v(N0612B)}
M0612C  {v(N0612C)}
M0612N  {v(N0612N)}
M0613A  {v(N0613A)}
M0613B  {v(N0613B)}
M0613C  {v(N0613C)}
M0613N  {v(N0613N)}
M0614A  {v(N0614A)}
M0614B  {v(N0614B)}
M0614C  {v(N0614C)}
M0614N  {v(N0614N)}
M0615A  {v(N0615A)}
M0615B  {v(N0615B)}
M0615C  {v(N0615C)}
M0615N  {v(N0615N)}
M0616A  {v(N0616A)}
M0616B  {v(N0616B)}
M0616C  {v(N0616C)}
M0616N  {v(N0616N)}
M0617A  {v(N0617A)}
M0617B  {v(N0617B)}
M0617C  {v(N0617C)}
M0617N  {v(N0617N)}
M0618A  {v(N0618A)}
M0618B  {v(N0618B)}
M0618C  {v(N0618C)}
M0618N  {v(N0618N)}
M0619A  {v(N0619A)}
M0619B  {v(N0619B)}
M0619C  {v(N0619C)}
M0619N  {v(N0619N)}
M0620A  {v(N0620A)}
M0620B  {v(N0620B)}
M0620C  {v(N0620C)}
M0620N  {v(N0620N)}
M0621A  {v(N0621A)}
M0621B  {v(N0621B)}
M0621C  {v(N0621C)}
M0621N  {v(N0621N)}
M0622A  {v(N0622A)}
M0622B  {v(N0622B)}
M0622C  {v(N0622C)}
M0622N  {v(N0622N)}
M0623A  {v(N0623A)}
M0623B  {v(N0623B)}
M0623C  {v(N0623C)}
M0623N  {v(N0623N)}
M0624A  {v(N0624A)}
M0624B  {v(N0624B)}
M0624C  {v(N0624C)}
M0624N  {v(N0624N)}
M0625A  {v(N0625A)}
M0625B  {v(N0625B)}
M0625C  {v(N0625C)}
M0625N  {v(N0625N)}
M0626A  {v(N0626A)}
M0626B  {v(N0626B)}
M0626C  {v(N0626C)}
M0626N  {v(N0626N)}
M0627A  {v(N0627A)}
M0627B  {v(N0627B)}
M0627C  {v(N0627C)}
M0627N  {v(N0627N)}
M0628A  {v(N0628A)}
M0628B  {v(N0628B)}
M0628C  {v(N0628C)}
M0628N  {v(N0628N)}
M0629A  {v(N0629A)}
M0629B  {v(N0629B)}
M0629C  {v(N0629C)}
M0629N  {v(N0629N)}
M0630A  {v(N0630A)}
M0630B  {v(N0630B)}
M0630C  {v(N0630C)}
M0630N  {v(N0630N)}
M0631A  {v(N0631A)}
M0631B  {v(N0631B)}
M0631C  {v(N0631C)}
M0631N  {v(N0631N)}
M0632A  {v(N0632A)}
M0632B  {v(N0632B)}
M0632C  {v(N0632C)}
M0632N  {v(N0632N)}
M0633A  {v(N0633A)}
M0633B  {v(N0633B)}
M0633C  {v(N0633C)}
M0633N  {v(N0633N)}
M0634A  {v(N0634A)}
M0634B  {v(N0634B)}
M0634C  {v(N0634C)}
M0634N  {v(N0634N)}
M0635A  {v(N0635A)}
M0635B  {v(N0635B)}
M0635C  {v(N0635C)}
M0635N  {v(N0635N)}
M0636A  {v(N0636A)}
M0636B  {v(N0636B)}
M0636C  {v(N0636C)}
M0636N  {v(N0636N)}
M0637A  {v(N0637A)}
M0637B  {v(N0637B)}
M0637C  {v(N0637C)}
M0637N  {v(N0637N)}
M0638A  {v(N0638A)}
M0638B  {v(N0638B)}
M0638C  {v(N0638C)}
M0638N  {v(N0638N)}
M0639A  {v(N0639A)}
M0639B  {v(N0639B)}
M0639C  {v(N0639C)}
M0639N  {v(N0639N)}
M0640A  {v(N0640A)}
M0640B  {v(N0640B)}
M0640C  {v(N0640C)}
M0640N  {v(N0640N)}
M0641A  {v(N0641A)}
M0641B  {v(N0641B)}
M0641C  {v(N0641C)}
M0641N  {v(N0641N)}
M0642A  {v(N0642A)}
M0642B  {v(N0642B)}
M0642C  {v(N0642C)}
M0642N  {v(N0642N)}
M0643A  {v(N0643A)}
M0643B  {v(N0643B)}
M0643C  {v(N0643C)}
M0643N  {v(N0643N)}
M0644A  {v(N0644A)}
M0644B  {v(N0644B)}
M0644C  {v(N0644C)}
M0644N  {v(N0644N)}
M0645A  {v(N0645A)}
M0645B  {v(N0645B)}
M0645C  {v(N0645C)}
M0645N  {v(N0645N)}
M0646A  {v(N0646A)}
M0646B  {v(N0646B)}
M0646C  {v(N0646C)}
M0646N  {v(N0646N)}
M0647A  {v(N0647A)}
M0647B  {v(N0647B)}
M0647C  {v(N0647C)}
M0647N  {v(N0647N)}
M0648A  {v(N0648A)}
M0648B  {v(N0648B)}
M0648C  {v(N0648C)}
M0648N  {v(N0648N)}
M0649A  {v(N0649A)}
M0649B  {v(N0649B)}
M0649C  {v(N0649C)}
M0649N  {v(N0649N)}
M0650A  {v(N0650A)}
M0650B  {v(N0650B)}
M0650C  {v(N0650C)}
M0650N  {v(N0650N)}
M0651A  {v(N0651A)}
M0651B  {v(N0651B)}
M0651C  {v(N0651C)}
M0651N  {v(N0651N)}
M0652A  {v(N0652A)}
M0652B  {v(N0652B)}
M0652C  {v(N0652C)}
M0652N  {v(N0652N)}
M0653A  {v(N0653A)}
M0653B  {v(N0653B)}
M0653C  {v(N0653C)}
M0653N  {v(N0653N)}
M0654A  {v(N0654A)}
M0654B  {v(N0654B)}
M0654C  {v(N0654C)}
M0654N  {v(N0654N)}
M0655A  {v(N0655A)}
M0655B  {v(N0655B)}
M0655C  {v(N0655C)}
M0655N  {v(N0655N)}
M0656A  {v(N0656A)}
M0656B  {v(N0656B)}
M0656C  {v(N0656C)}
M0656N  {v(N0656N)}
M0657A  {v(N0657A)}
M0657B  {v(N0657B)}
M0657C  {v(N0657C)}
M0657N  {v(N0657N)}
M0658A  {v(N0658A)}
M0658B  {v(N0658B)}
M0658C  {v(N0658C)}
M0658N  {v(N0658N)}
M0659A  {v(N0659A)}
M0659B  {v(N0659B)}
M0659C  {v(N0659C)}
M0659N  {v(N0659N)}
M0660A  {v(N0660A)}
M0660B  {v(N0660B)}
M0660C  {v(N0660C)}
M0660N  {v(N0660N)}
M0661A  {v(N0661A)}
M0661B  {v(N0661B)}
M0661C  {v(N0661C)}
M0661N  {v(N0661N)}
M0662A  {v(N0662A)}
M0662B  {v(N0662B)}
M0662C  {v(N0662C)}
M0662N  {v(N0662N)}
M0663A  {v(N0663A)}
M0663B  {v(N0663B)}
M0663C  {v(N0663C)}
M0663N  {v(N0663N)}
M0664A  {v(N0664A)}
M0664B  {v(N0664B)}
M0664C  {v(N0664C)}
M0664N  {v(N0664N)}
M0665A  {v(N0665A)}
M0665B  {v(N0665B)}
M0665C  {v(N0665C)}
M0665N  {v(N0665N)}
M0666A  {v(N0666A)}
M0666B  {v(N0666B)}
M0666C  {v(N0666C)}
M0666N  {v(N0666N)}
M0667A  {v(N0667A)}
M0667B  {v(N0667B)}
M0667C  {v(N0667C)}
M0667N  {v(N0667N)}
M0668A  {v(N0668A)}
M0668B  {v(N0668B)}
M0668C  {v(N0668C)}
M0668N  {v(N0668N)}
M0669A  {v(N0669A)}
M0669B  {v(N0669B)}
M0669C  {v(N0669C)}
M0669N  {v(N0669N)}
M0670A  {v(N0670A)}
M0670B  {v(N0670B)}
M0670C  {v(N0670C)}
M0670N  {v(N0670N)}
M0671A  {v(N0671A)}
M0671B  {v(N0671B)}
M0671C  {v(N0671C)}
M0671N  {v(N0671N)}
M0672A  {v(N0672A)}
M0672B  {v(N0672B)}
M0672C  {v(N0672C)}
M0672N  {v(N0672N)}
M0673A  {v(N0673A)}
M0673B  {v(N0673B)}
M0673C  {v(N0673C)}
M0673N  {v(N0673N)}
M0674A  {v(N0674A)}
M0674B  {v(N0674B)}
M0674C  {v(N0674C)}
M0674N  {v(N0674N)}
M0675A  {v(N0675A)}
M0675B  {v(N0675B)}
M0675C  {v(N0675C)}
M0675N  {v(N0675N)}
M0676A  {v(N0676A)}
M0676B  {v(N0676B)}
M0676C  {v(N0676C)}
M0676N  {v(N0676N)}
M1691A  {v(N1691A)}
M1691B  {v(N1691B)}
M1691C  {v(N1691C)}
M1691N  {v(N1691N)}
M1692A  {v(N1692A)}
M1692B  {v(N1692B)}
M1692C  {v(N1692C)}
M1692N  {v(N1692N)}
M1693A  {v(N1693A)}
M1693B  {v(N1693B)}
M1693C  {v(N1693C)}
M1693N  {v(N1693N)}
M1694A  {v(N1694A)}
M1694B  {v(N1694B)}
M1694C  {v(N1694C)}
M1694N  {v(N1694N)}
M1695A  {v(N1695A)}
M1695B  {v(N1695B)}
M1695C  {v(N1695C)}
M1695N  {v(N1695N)}
M1696A  {v(N1696A)}
M1696B  {v(N1696B)}
M1696C  {v(N1696C)}
M1696N  {v(N1696N)}
M1697A  {v(N1697A)}
M1697B  {v(N1697B)}
M1697C  {v(N1697C)}
M1697N  {v(N1697N)}
M1698A  {v(N1698A)}
M1698B  {v(N1698B)}
M1698C  {v(N1698C)}
M1698N  {v(N1698N)}
M1699A  {v(N1699A)}
M1699B  {v(N1699B)}
M1699C  {v(N1699C)}
M1699N  {v(N1699N)}
M1700A  {v(N1700A)}
M1700B  {v(N1700B)}
M1700C  {v(N1700C)}
M1700N  {v(N1700N)}
M1701A  {v(N1701A)}
M1701B  {v(N1701B)}
M1701C  {v(N1701C)}
M1701N  {v(N1701N)}
M1702A  {v(N1702A)}
M1702B  {v(N1702B)}
M1702C  {v(N1702C)}
M1702N  {v(N1702N)}
M1703A  {v(N1703A)}
M1703B  {v(N1703B)}
M1703C  {v(N1703C)}
M1703N  {v(N1703N)}
M1704A  {v(N1704A)}
M1704B  {v(N1704B)}
M1704C  {v(N1704C)}
M1704N  {v(N1704N)}
M1705A  {v(N1705A)}
M1705B  {v(N1705B)}
M1705C  {v(N1705C)}
M1705N  {v(N1705N)}
M1706A  {v(N1706A)}
M1706B  {v(N1706B)}
M1706C  {v(N1706C)}
M1706N  {v(N1706N)}
M1707A  {v(N1707A)}
M1707B  {v(N1707B)}
M1707C  {v(N1707C)}
M1707N  {v(N1707N)}
M1708A  {v(N1708A)}
M1708B  {v(N1708B)}
M1708C  {v(N1708C)}
M1708N  {v(N1708N)}
M1709A  {v(N1709A)}
M1709B  {v(N1709B)}
M1709C  {v(N1709C)}
M1709N  {v(N1709N)}
M1710A  {v(N1710A)}
M1710B  {v(N1710B)}
M1710C  {v(N1710C)}
M1710N  {v(N1710N)}
M1711A  {v(N1711A)}
M1711B  {v(N1711B)}
M1711C  {v(N1711C)}
M1711N  {v(N1711N)}
M1712A  {v(N1712A)}
M1712B  {v(N1712B)}
M1712C  {v(N1712C)}
M1712N  {v(N1712N)}
M1713A  {v(N1713A)}
M1713B  {v(N1713B)}
M1713C  {v(N1713C)}
M1713N  {v(N1713N)}
M1714A  {v(N1714A)}
M1714B  {v(N1714B)}
M1714C  {v(N1714C)}
M1714N  {v(N1714N)}
M1715A  {v(N1715A)}
M1715B  {v(N1715B)}
M1715C  {v(N1715C)}
M1715N  {v(N1715N)}
M1716A  {v(N1716A)}
M1716B  {v(N1716B)}
M1716C  {v(N1716C)}
M1716N  {v(N1716N)}
M1717A  {v(N1717A)}
M1717B  {v(N1717B)}
M1717C  {v(N1717C)}
M1717N  {v(N1717N)}
M1718A  {v(N1718A)}
M1718B  {v(N1718B)}
M1718C  {v(N1718C)}
M1718N  {v(N1718N)}
M1719A  {v(N1719A)}
M1719B  {v(N1719B)}
M1719C  {v(N1719C)}
M1719N  {v(N1719N)}
M1720A  {v(N1720A)}
M1720B  {v(N1720B)}
M1720C  {v(N1720C)}
M1720N  {v(N1720N)}
M1721A  {v(N1721A)}
M1721B  {v(N1721B)}
M1721C  {v(N1721C)}
M1721N  {v(N1721N)}
M1722A  {v(N1722A)}
M1722B  {v(N1722B)}
M1722C  {v(N1722C)}
M1722N  {v(N1722N)}
M1723A  {v(N1723A)}
M1723B  {v(N1723B)}
M1723C  {v(N1723C)}
M1723N  {v(N1723N)}
M1724A  {v(N1724A)}
M1724B  {v(N1724B)}
M1724C  {v(N1724C)}
M1724N  {v(N1724N)}
M2039A  {v(N2039A)}
M2039B  {v(N2039B)}
M2039C  {v(N2039C)}
M2039N  {v(N2039N)}
M2040A  {v(N2040A)}
M2040B  {v(N2040B)}
M2040C  {v(N2040C)}
M2040N  {v(N2040N)}
M2041A  {v(N2041A)}
M2041B  {v(N2041B)}
M2041C  {v(N2041C)}
M2041N  {v(N2041N)}
M2042A  {v(N2042A)}
M2042B  {v(N2042B)}
M2042C  {v(N2042C)}
M2042N  {v(N2042N)}
M2043A  {v(N2043A)}
M2043B  {v(N2043B)}
M2043C  {v(N2043C)}
M2043N  {v(N2043N)}
M2044A  {v(N2044A)}
M2044B  {v(N2044B)}
M2044C  {v(N2044C)}
M2044N  {v(N2044N)}
M2045A  {v(N2045A)}
M2045B  {v(N2045B)}
M2045C  {v(N2045C)}
M2045N  {v(N2045N)}
M2046A  {v(N2046A)}
M2046B  {v(N2046B)}
M2046C  {v(N2046C)}
M2046N  {v(N2046N)}
M2047A  {v(N2047A)}
M2047B  {v(N2047B)}
M2047C  {v(N2047C)}
M2047N  {v(N2047N)}
M2048A  {v(N2048A)}
M2048B  {v(N2048B)}
M2048C  {v(N2048C)}
M2048N  {v(N2048N)}
M2049A  {v(N2049A)}
M2049B  {v(N2049B)}
M2049C  {v(N2049C)}
M2049N  {v(N2049N)}
M2050A  {v(N2050A)}
M2050B  {v(N2050B)}
M2050C  {v(N2050C)}
M2050N  {v(N2050N)}
M2051A  {v(N2051A)}
M2051B  {v(N2051B)}
M2051C  {v(N2051C)}
M2051N  {v(N2051N)}
M2104A  {v(N2104A)}
M2104B  {v(N2104B)}
M2104C  {v(N2104C)}
M2104N  {v(N2104N)}
M2105A  {v(N2105A)}
M2105B  {v(N2105B)}
M2105C  {v(N2105C)}
M2105N  {v(N2105N)}
M2106A  {v(N2106A)}
M2106B  {v(N2106B)}
M2106C  {v(N2106C)}
M2106N  {v(N2106N)}
M2107A  {v(N2107A)}
M2107B  {v(N2107B)}
M2107C  {v(N2107C)}
M2107N  {v(N2107N)}
M2108A  {v(N2108A)}
M2108B  {v(N2108B)}
M2108C  {v(N2108C)}
M2108N  {v(N2108N)}
M2109A  {v(N2109A)}
M2109B  {v(N2109B)}
M2109C  {v(N2109C)}
M2109N  {v(N2109N)}
M2110A  {v(N2110A)}
M2110B  {v(N2110B)}
M2110C  {v(N2110C)}
M2110N  {v(N2110N)}
M2111A  {v(N2111A)}
M2111B  {v(N2111B)}
M2111C  {v(N2111C)}
M2111N  {v(N2111N)}
M2112A  {v(N2112A)}
M2112B  {v(N2112B)}
M2112C  {v(N2112C)}
M2112N  {v(N2112N)}
M2113A  {v(N2113A)}
M2113B  {v(N2113B)}
M2113C  {v(N2113C)}
M2113N  {v(N2113N)}
M2114A  {v(N2114A)}
M2114B  {v(N2114B)}
M2114C  {v(N2114C)}
M2114N  {v(N2114N)}
M2115A  {v(N2115A)}
M2115B  {v(N2115B)}
M2115C  {v(N2115C)}
M2115N  {v(N2115N)}
M2116A  {v(N2116A)}
M2116B  {v(N2116B)}
M2116C  {v(N2116C)}
M2116N  {v(N2116N)}
M2117A  {v(N2117A)}
M2117B  {v(N2117B)}
M2117C  {v(N2117C)}
M2117N  {v(N2117N)}
M2118A  {v(N2118A)}
M2118B  {v(N2118B)}
M2118C  {v(N2118C)}
M2118N  {v(N2118N)}
M2119A  {v(N2119A)}
M2119B  {v(N2119B)}
M2119C  {v(N2119C)}
M2119N  {v(N2119N)}
M2120A  {v(N2120A)}
M2120B  {v(N2120B)}
M2120C  {v(N2120C)}
M2120N  {v(N2120N)}
M2121A  {v(N2121A)}
M2121B  {v(N2121B)}
M2121C  {v(N2121C)}
M2121N  {v(N2121N)}
M2122A  {v(N2122A)}
M2122B  {v(N2122B)}
M2122C  {v(N2122C)}
M2122N  {v(N2122N)}
M2123A  {v(N2123A)}
M2123B  {v(N2123B)}
M2123C  {v(N2123C)}
M2123N  {v(N2123N)}
M2124A  {v(N2124A)}
M2124B  {v(N2124B)}
M2124C  {v(N2124C)}
M2124N  {v(N2124N)}
M2125A  {v(N2125A)}
M2125B  {v(N2125B)}
M2125C  {v(N2125C)}
M2125N  {v(N2125N)}
M2126A  {v(N2126A)}
M2126B  {v(N2126B)}
M2126C  {v(N2126C)}
M2126N  {v(N2126N)}
M2127A  {v(N2127A)}
M2127B  {v(N2127B)}
M2127C  {v(N2127C)}
M2127N  {v(N2127N)}
M2128A  {v(N2128A)}
M2128B  {v(N2128B)}
M2128C  {v(N2128C)}
M2128N  {v(N2128N)}
M2129A  {v(N2129A)}
M2129B  {v(N2129B)}
M2129C  {v(N2129C)}
M2129N  {v(N2129N)}
M2130A  {v(N2130A)}
M2130B  {v(N2130B)}
M2130C  {v(N2130C)}
M2130N  {v(N2130N)}
M2131A  {v(N2131A)}
M2131B  {v(N2131B)}
M2131C  {v(N2131C)}
M2131N  {v(N2131N)}
M2132A  {v(N2132A)}
M2132B  {v(N2132B)}
M2132C  {v(N2132C)}
M2132N  {v(N2132N)}
M2133A  {v(N2133A)}
M2133B  {v(N2133B)}
M2133C  {v(N2133C)}
M2133N  {v(N2133N)}
M2134A  {v(N2134A)}
M2134B  {v(N2134B)}
M2134C  {v(N2134C)}
M2134N  {v(N2134N)}
M2135A  {v(N2135A)}
M2135B  {v(N2135B)}
M2135C  {v(N2135C)}
M2135N  {v(N2135N)}
M2136A  {v(N2136A)}
M2136B  {v(N2136B)}
M2136C  {v(N2136C)}
M2136N  {v(N2136N)}
M2137A  {v(N2137A)}
M2137B  {v(N2137B)}
M2137C  {v(N2137C)}
M2137N  {v(N2137N)}
M2138A  {v(N2138A)}
M2138B  {v(N2138B)}
M2138C  {v(N2138C)}
M2138N  {v(N2138N)}
M2139A  {v(N2139A)}
M2139B  {v(N2139B)}
M2139C  {v(N2139C)}
M2139N  {v(N2139N)}
OUTPUT
   L0001A
   R0001A
   L0001B
   R0001B
   L0001C
   R0001C
   L0001N
   R0001N
   L0002A
   R0002A
   L0002B
   R0002B
   L0002C
   R0002C
   L0002N
   R0002N
   L0003A
   R0003A
   L0003B
   R0003B
   L0003C
   R0003C
   L0003N
   R0003N
   L0004A
   R0004A
   L0004B
   R0004B
   L0004C
   R0004C
   L0004N
   R0004N
   L0005A
   R0005A
   L0005B
   R0005B
   L0005C
   R0005C
   L0005N
   R0005N
   L0006A
   R0006A
   L0006B
   R0006B
   L0006C
   R0006C
   L0006N
   R0006N
   L0007A
   R0007A
   L0007B
   R0007B
   L0007C
   R0007C
   L0007N
   R0007N
   L0008A
   R0008A
   L0008B
   R0008B
   L0008C
   R0008C
   L0008N
   R0008N
   L0009A
   R0009A
   L0009B
   R0009B
   L0009C
   R0009C