BEGIN NEW DATA CASE
C --------------------------------------------------------
C Generated by YALUK DRAW 2.0
C Developed by: Ernesto Pérez G
C eperezg@unal.edu.co
C Universidad Nacional de Colombia
C File Created on: 12/8/2020 10:56:24 PM
C --------------------------------------------------------
C Project Name:L92_503_circuitB2.1
C   
C  dT  >< Tmax >< Xopt >< Copt > 
.5000E-7.3500E-4
C IOUT >< IPLOT><IDOUBL><KSSOUT><MAXOUT>< IPUN ><MEMSAV>< ICAT ><NENERG><IPRSUP>
 9999999     100       0       0       1       0       0       0       0
/MODELS
MODELS
INPUT
M0614A  {v(N0614A)}
M0614B  {v(N0614B)}
M0614C  {v(N0614C)}
M0614N  {v(N0614N)}
M0615A  {v(N0615A)}
M0615B  {v(N0615B)}
M0615C  {v(N0615C)}
M0615N  {v(N0615N)}
M0616A  {v(N0616A)}
M0616B  {v(N0616B)}
M0616C  {v(N0616C)}
M0616N  {v(N0616N)}
M0617A  {v(N0617A)}
M0617B  {v(N0617B)}
M0617C  {v(N0617C)}
M0617N  {v(N0617N)}
M0618A  {v(N0618A)}
M0618B  {v(N0618B)}
M0618C  {v(N0618C)}
M0618N  {v(N0618N)}
M0619A  {v(N0619A)}
M0619B  {v(N0619B)}
M0619C  {v(N0619C)}
M0619N  {v(N0619N)}
M0639A  {v(N0639A)}
M0639B  {v(N0639B)}
M0639C  {v(N0639C)}
M0639N  {v(N0639N)}
M0640A  {v(N0640A)}
M0640B  {v(N0640B)}
M0640C  {v(N0640C)}
M0640N  {v(N0640N)}
M0641A  {v(N0641A)}
M0641B  {v(N0641B)}
M0641C  {v(N0641C)}
M0641N  {v(N0641N)}
M0642A  {v(N0642A)}
M0642B  {v(N0642B)}
M0642C  {v(N0642C)}
M0642N  {v(N0642N)}
M0643A  {v(N0643A)}
M0643B  {v(N0643B)}
M0643C  {v(N0643C)}
M0643N  {v(N0643N)}
M0644A  {v(N0644A)}
M0644B  {v(N0644B)}
M0644C  {v(N0644C)}
M0644N  {v(N0644N)}
M0645A  {v(N0645A)}
M0645B  {v(N0645B)}
M0645C  {v(N0645C)}
M0645N  {v(N0645N)}
M0646A  {v(N0646A)}
M0646B  {v(N0646B)}
M0646C  {v(N0646C)}
M0646N  {v(N0646N)}
M0647A  {v(N0647A)}
M0647B  {v(N0647B)}
M0647C  {v(N0647C)}
M0647N  {v(N0647N)}
M0648A  {v(N0648A)}
M0648B  {v(N0648B)}
M0648C  {v(N0648C)}
M0648N  {v(N0648N)}
M0649A  {v(N0649A)}
M0649B  {v(N0649B)}
M0649C  {v(N0649C)}
M0649N  {v(N0649N)}
M0650A  {v(N0650A)}
M0650B  {v(N0650B)}
M0650C  {v(N0650C)}
M0650N  {v(N0650N)}
M0651A  {v(N0651A)}
M0651B  {v(N0651B)}
M0651C  {v(N0651C)}
M0651N  {v(N0651N)}
M0652A  {v(N0652A)}
M0652B  {v(N0652B)}
M0652C  {v(N0652C)}
M0652N  {v(N0652N)}
M0653A  {v(N0653A)}
M0653B  {v(N0653B)}
M0653C  {v(N0653C)}
M0653N  {v(N0653N)}
M0654A  {v(N0654A)}
M0654B  {v(N0654B)}
M0654C  {v(N0654C)}
M0654N  {v(N0654N)}
M0655A  {v(N0655A)}
M0655B  {v(N0655B)}
M0655C  {v(N0655C)}
M0655N  {v(N0655N)}
M0656A  {v(N0656A)}
M0656B  {v(N0656B)}
M0656C  {v(N0656C)}
M0656N  {v(N0656N)}
M0657A  {v(N0657A)}
M0657B  {v(N0657B)}
M0657C  {v(N0657C)}
M0657N  {v(N0657N)}
M0658A  {v(N0658A)}
M0658B  {v(N0658B)}
M0658C  {v(N0658C)}
M0658N  {v(N0658N)}
M0659A  {v(N0659A)}
M0659B  {v(N0659B)}
M0659C  {v(N0659C)}
M0659N  {v(N0659N)}
M0660A  {v(N0660A)}
M0660B  {v(N0660B)}
M0660C  {v(N0660C)}
M0660N  {v(N0660N)}
M0661A  {v(N0661A)}
M0661B  {v(N0661B)}
M0661C  {v(N0661C)}
M0661N  {v(N0661N)}
M0662A  {v(N0662A)}
M0662B  {v(N0662B)}
M0662C  {v(N0662C)}
M0662N  {v(N0662N)}
M0663A  {v(N0663A)}
M0663B  {v(N0663B)}
M0663C  {v(N0663C)}
M0663N  {v(N0663N)}
M0664A  {v(N0664A)}
M0664B  {v(N0664B)}
M0664C  {v(N0664C)}
M0664N  {v(N0664N)}
M0665A  {v(N0665A)}
M0665B  {v(N0665B)}
M0665C  {v(N0665C)}
M0665N  {v(N0665N)}
M0666A  {v(N0666A)}
M0666B  {v(N0666B)}
M0666C  {v(N0666C)}
M0666N  {v(N0666N)}
M0667A  {v(N0667A)}
M0667B  {v(N0667B)}
M0667C  {v(N0667C)}
M0667N  {v(N0667N)}
M0668A  {v(N0668A)}
M0668B  {v(N0668B)}
M0668C  {v(N0668C)}
M0668N  {v(N0668N)}
M0669A  {v(N0669A)}
M0669B  {v(N0669B)}
M0669C  {v(N0669C)}
M0669N  {v(N0669N)}
M0670A  {v(N0670A)}
M0670B  {v(N0670B)}
M0670C  {v(N0670C)}
M0670N  {v(N0670N)}
M0671A  {v(N0671A)}
M0671B  {v(N0671B)}
M0671C  {v(N0671C)}
M0671N  {v(N0671N)}
M0672A  {v(N0672A)}
M0672B  {v(N0672B)}
M0672C  {v(N0672C)}
M0672N  {v(N0672N)}
M0673A  {v(N0673A)}
M0673B  {v(N0673B)}
M0673C  {v(N0673C)}
M0673N  {v(N0673N)}
M0674A  {v(N0674A)}
M0674B  {v(N0674B)}
M0674C  {v(N0674C)}
M0674N  {v(N0674N)}
M0675A  {v(N0675A)}
M0675B  {v(N0675B)}
M0675C  {v(N0675C)}
M0675N  {v(N0675N)}
M0676A  {v(N0676A)}
M0676B  {v(N0676B)}
M0676C  {v(N0676C)}
M0676N  {v(N0676N)}
M0677A  {v(N0677A)}
M0677B  {v(N0677B)}
M0677C  {v(N0677C)}
M0677N  {v(N0677N)}
M0678A  {v(N0678A)}
M0678B  {v(N0678B)}
M0678C  {v(N0678C)}
M0678N  {v(N0678N)}
M0679A  {v(N0679A)}
M0679B  {v(N0679B)}
M0679C  {v(N0679C)}
M0679N  {v(N0679N)}
M0680A  {v(N0680A)}
M0680B  {v(N0680B)}
M0680C  {v(N0680C)}
M0680N  {v(N0680N)}
M0681A  {v(N0681A)}
M0681B  {v(N0681B)}
M0681C  {v(N0681C)}
M0681N  {v(N0681N)}
M0682A  {v(N0682A)}
M0682B  {v(N0682B)}
M0682C  {v(N0682C)}
M0682N  {v(N0682N)}
M0683A  {v(N0683A)}
M0683B  {v(N0683B)}
M0683C  {v(N0683C)}
M0683N  {v(N0683N)}
M0684A  {v(N0684A)}
M0684B  {v(N0684B)}
M0684C  {v(N0684C)}
M0684N  {v(N0684N)}
M0685A  {v(N0685A)}
M0685B  {v(N0685B)}
M0685C  {v(N0685C)}
M0685N  {v(N0685N)}
M0686A  {v(N0686A)}
M0686B  {v(N0686B)}
M0686C  {v(N0686C)}
M0686N  {v(N0686N)}
M0687A  {v(N0687A)}
M0687B  {v(N0687B)}
M0687C  {v(N0687C)}
M0687N  {v(N0687N)}
M0688A  {v(N0688A)}
M0688B  {v(N0688B)}
M0688C  {v(N0688C)}
M0688N  {v(N0688N)}
M0689A  {v(N0689A)}
M0689B  {v(N0689B)}
M0689C  {v(N0689C)}
M0689N  {v(N0689N)}
M0690A  {v(N0690A)}
M0690B  {v(N0690B)}
M0690C  {v(N0690C)}
M0690N  {v(N0690N)}
M0691A  {v(N0691A)}
M0691B  {v(N0691B)}
M0691C  {v(N0691C)}
M0691N  {v(N0691N)}
M0692A  {v(N0692A)}
M0692B  {v(N0692B)}
M0692C  {v(N0692C)}
M0692N  {v(N0692N)}
M0693A  {v(N0693A)}
M0693B  {v(N0693B)}
M0693C  {v(N0693C)}
M0693N  {v(N0693N)}
M0694A  {v(N0694A)}
M0694B  {v(N0694B)}
M0694C  {v(N0694C)}
M0694N  {v(N0694N)}
M0695A  {v(N0695A)}
M0695B  {v(N0695B)}
M0695C  {v(N0695C)}
M0695N  {v(N0695N)}
M0696A  {v(N0696A)}
M0696B  {v(N0696B)}
M0696C  {v(N0696C)}
M0696N  {v(N0696N)}
M0697A  {v(N0697A)}
M0697B  {v(N0697B)}
M0697C  {v(N0697C)}
M0697N  {v(N0697N)}
M0698A  {v(N0698A)}
M0698B  {v(N0698B)}
M0698C  {v(N0698C)}
M0698N  {v(N0698N)}
M0699A  {v(N0699A)}
M0699B  {v(N0699B)}
M0699C  {v(N0699C)}
M0699N  {v(N0699N)}
M0700A  {v(N0700A)}
M0700B  {v(N0700B)}
M0700C  {v(N0700C)}
M0700N  {v(N0700N)}
M0701A  {v(N0701A)}
M0701B  {v(N0701B)}
M0701C  {v(N0701C)}
M0701N  {v(N0701N)}
M0702A  {v(N0702A)}
M0702B  {v(N0702B)}
M0702C  {v(N0702C)}
M0702N  {v(N0702N)}
M0703A  {v(N0703A)}
M0703B  {v(N0703B)}
M0703C  {v(N0703C)}
M0703N  {v(N0703N)}
M0704A  {v(N0704A)}
M0704B  {v(N0704B)}
M0704C  {v(N0704C)}
M0704N  {v(N0704N)}
M0705A  {v(N0705A)}
M0705B  {v(N0705B)}
M0705C  {v(N0705C)}
M0705N  {v(N0705N)}
M0706A  {v(N0706A)}
M0706B  {v(N0706B)}
M0706C  {v(N0706C)}
M0706N  {v(N0706N)}
M0707A  {v(N0707A)}
M0707B  {v(N0707B)}
M0707C  {v(N0707C)}
M0707N  {v(N0707N)}
M0708A  {v(N0708A)}
M0708B  {v(N0708B)}
M0708C  {v(N0708C)}
M0708N  {v(N0708N)}
M0709A  {v(N0709A)}
M0709B  {v(N0709B)}
M0709C  {v(N0709C)}
M0709N  {v(N0709N)}
M0710A  {v(N0710A)}
M0710B  {v(N0710B)}
M0710C  {v(N0710C)}
M0710N  {v(N0710N)}
M0711A  {v(N0711A)}
M0711B  {v(N0711B)}
M0711C  {v(N0711C)}
M0711N  {v(N0711N)}
M0712A  {v(N0712A)}
M0712B  {v(N0712B)}
M0712C  {v(N0712C)}
M0712N  {v(N0712N)}
M0713A  {v(N0713A)}
M0713B  {v(N0713B)}
M0713C  {v(N0713C)}
M0713N  {v(N0713N)}
M0714A  {v(N0714A)}
M0714B  {v(N0714B)}
M0714C  {v(N0714C)}
M0714N  {v(N0714N)}
M0715A  {v(N0715A)}
M0715B  {v(N0715B)}
M0715C  {v(N0715C)}
M0715N  {v(N0715N)}
M0716A  {v(N0716A)}
M0716B  {v(N0716B)}
M0716C  {v(N0716C)}
M0716N  {v(N0716N)}
M0717A  {v(N0717A)}
M0717B  {v(N0717B)}
M0717C  {v(N0717C)}
M0717N  {v(N0717N)}
M0718A  {v(N0718A)}
M0718B  {v(N0718B)}
M0718C  {v(N0718C)}
M0718N  {v(N0718N)}
M0719A  {v(N0719A)}
M0719B  {v(N0719B)}
M0719C  {v(N0719C)}
M0719N  {v(N0719N)}
M0720A  {v(N0720A)}
M0720B  {v(N0720B)}
M0720C  {v(N0720C)}
M0720N  {v(N0720N)}
M0721A  {v(N0721A)}
M0721B  {v(N0721B)}
M0721C  {v(N0721C)}
M0721N  {v(N0721N)}
M0722A  {v(N0722A)}
M0722B  {v(N0722B)}
M0722C  {v(N0722C)}
M0722N  {v(N0722N)}
M0723A  {v(N0723A)}
M0723B  {v(N0723B)}
M0723C  {v(N0723C)}
M0723N  {v(N0723N)}
M0724A  {v(N0724A)}
M0724B  {v(N0724B)}
M0724C  {v(N0724C)}
M0724N  {v(N0724N)}
M0725A  {v(N0725A)}
M0725B  {v(N0725B)}
M0725C  {v(N0725C)}
M0725N  {v(N0725N)}
M0726A  {v(N0726A)}
M0726B  {v(N0726B)}
M0726C  {v(N0726C)}
M0726N  {v(N0726N)}
M0727A  {v(N0727A)}
M0727B  {v(N0727B)}
M0727C  {v(N0727C)}
M0727N  {v(N0727N)}
M0728A  {v(N0728A)}
M0728B  {v(N0728B)}
M0728C  {v(N0728C)}
M0728N  {v(N0728N)}
M0729A  {v(N0729A)}
M0729B  {v(N0729B)}
M0729C  {v(N0729C)}
M0729N  {v(N0729N)}
M0730A  {v(N0730A)}
M0730B  {v(N0730B)}
M0730C  {v(N0730C)}
M0730N  {v(N0730N)}
M0731A  {v(N0731A)}
M0731B  {v(N0731B)}
M0731C  {v(N0731C)}
M0731N  {v(N0731N)}
M0732A  {v(N0732A)}
M0732B  {v(N0732B)}
M0732C  {v(N0732C)}
M0732N  {v(N0732N)}
M0733A  {v(N0733A)}
M0733B  {v(N0733B)}
M0733C  {v(N0733C)}
M0733N  {v(N0733N)}
M0734A  {v(N0734A)}
M0734B  {v(N0734B)}
M0734C  {v(N0734C)}
M0734N  {v(N0734N)}
M0735A  {v(N0735A)}
M0735B  {v(N0735B)}
M0735C  {v(N0735C)}
M0735N  {v(N0735N)}
M0736A  {v(N0736A)}
M0736B  {v(N0736B)}
M0736C  {v(N0736C)}
M0736N  {v(N0736N)}
M0737A  {v(N0737A)}
M0737B  {v(N0737B)}
M0737C  {v(N0737C)}
M0737N  {v(N0737N)}
M0738A  {v(N0738A)}
M0738B  {v(N0738B)}
M0738C  {v(N0738C)}
M0738N  {v(N0738N)}
M0739A  {v(N0739A)}
M0739B  {v(N0739B)}
M0739C  {v(N0739C)}
M0739N  {v(N0739N)}
M0740A  {v(N0740A)}
M0740B  {v(N0740B)}
M0740C  {v(N0740C)}
M0740N  {v(N0740N)}
M0741A  {v(N0741A)}
M0741B  {v(N0741B)}
M0741C  {v(N0741C)}
M0741N  {v(N0741N)}
M0742A  {v(N0742A)}
M0742B  {v(N0742B)}
M0742C  {v(N0742C)}
M0742N  {v(N0742N)}
M0743A  {v(N0743A)}
M0743B  {v(N0743B)}
M0743C  {v(N0743C)}
M0743N  {v(N0743N)}
M0744A  {v(N0744A)}
M0744B  {v(N0744B)}
M0744C  {v(N0744C)}
M0744N  {v(N0744N)}
M0745A  {v(N0745A)}
M0745B  {v(N0745B)}
M0745C  {v(N0745C)}
M0745N  {v(N0745N)}
M0746A  {v(N0746A)}
M0746B  {v(N0746B)}
M0746C  {v(N0746C)}
M0746N  {v(N0746N)}
M0747A  {v(N0747A)}
M0747B  {v(N0747B)}
M0747C  {v(N0747C)}
M0747N  {v(N0747N)}
M0748A  {v(N0748A)}
M0748B  {v(N0748B)}
M0748C  {v(N0748C)}
M0748N  {v(N0748N)}
M0749A  {v(N0749A)}
M0749B  {v(N0749B)}
M0749C  {v(N0749C)}
M0749N  {v(N0749N)}
M0750A  {v(N0750A)}
M0750B  {v(N0750B)}
M0750C  {v(N0750C)}
M0750N  {v(N0750N)}
M0751A  {v(N0751A)}
M0751B  {v(N0751B)}
M0751C  {v(N0751C)}
M0751N  {v(N0751N)}
M0752A  {v(N0752A)}
M0752B  {v(N0752B)}
M0752C  {v(N0752C)}
M0752N  {v(N0752N)}
M0753A  {v(N0753A)}
M0753B  {v(N0753B)}
M0753C  {v(N0753C)}
M0753N  {v(N0753N)}
M0754A  {v(N0754A)}
M0754B  {v(N0754B)}
M0754C  {v(N0754C)}
M0754N  {v(N0754N)}
M0755A  {v(N0755A)}
M0755B  {v(N0755B)}
M0755C  {v(N0755C)}
M0755N  {v(N0755N)}
M0756A  {v(N0756A)}
M0756B  {v(N0756B)}
M0756C  {v(N0756C)}
M0756N  {v(N0756N)}
M0757A  {v(N0757A)}
M0757B  {v(N0757B)}
M0757C  {v(N0757C)}
M0757N  {v(N0757N)}
M0758A  {v(N0758A)}
M0758B  {v(N0758B)}
M0758C  {v(N0758C)}
M0758N  {v(N0758N)}
M0759A  {v(N0759A)}
M0759B  {v(N0759B)}
M0759C  {v(N0759C)}
M0759N  {v(N0759N)}
M0760A  {v(N0760A)}
M0760B  {v(N0760B)}
M0760C  {v(N0760C)}
M0760N  {v(N0760N)}
M0761A  {v(N0761A)}
M0761B  {v(N0761B)}
M0761C  {v(N0761C)}
M0761N  {v(N0761N)}
M0762A  {v(N0762A)}
M0762B  {v(N0762B)}
M0762C  {v(N0762C)}
M0762N  {v(N0762N)}
M0827A  {v(N0827A)}
M0827B  {v(N0827B)}
M0827C  {v(N0827C)}
M0827N  {v(N0827N)}
M0828A  {v(N0828A)}
M0828B  {v(N0828B)}
M0828C  {v(N0828C)}
M0828N  {v(N0828N)}
M0626A  {v(N0626A)}
M0626B  {v(N0626B)}
M0626C  {v(N0626C)}
M0626N  {v(N0626N)}
M0838A  {v(N0838A)}
M0838B  {v(N0838B)}
M0838C  {v(N0838C)}
M0838N  {v(N0838N)}
M0839A  {v(N0839A)}
M0839B  {v(N0839B)}
M0839C  {v(N0839C)}
M0839N  {v(N0839N)}
M0846A  {v(N0846A)}
M0846B  {v(N0846B)}
M0846C  {v(N0846C)}
M0846N  {v(N0846N)}
M0847A  {v(N0847A)}
M0847B  {v(N0847B)}
M0847C  {v(N0847C)}
M0847N  {v(N0847N)}
M0848A  {v(N0848A)}
M0848B  {v(N0848B)}
M0848C  {v(N0848C)}
M0848N  {v(N0848N)}
M0849A  {v(N0849A)}
M0849B  {v(N0849B)}
M0849C  {v(N0849C)}
M0849N  {v(N0849N)}
M0850A  {v(N0850A)}
M0850B  {v(N0850B)}
M0850C  {v(N0850C)}
M0850N  {v(N0850N)}
M0851A  {v(N0851A)}
M0851B  {v(N0851B)}
M0851C  {v(N0851C)}
M0851N  {v(N0851N)}
M0852A  {v(N0852A)}
M0852B  {v(N0852B)}
M0852C  {v(N0852C)}
M0852N  {v(N0852N)}
M0853A  {v(N0853A)}
M0853B  {v(N0853B)}
M0853C  {v(N0853C)}
M0853N  {v(N0853N)}
M0854A  {v(N0854A)}
M0854B  {v(N0854B)}
M0854C  {v(N0854C)}
M0854N  {v(N0854N)}
M0855A  {v(N0855A)}
M0855B  {v(N0855B)}
M0855C  {v(N0855C)}
M0855N  {v(N0855N)}
M0856A  {v(N0856A)}
M0856B  {v(N0856B)}
M0856C  {v(N0856C)}
M0856N  {v(N0856N)}
M0857A  {v(N0857A)}
M0857B  {v(N0857B)}
M0857C  {v(N0857C)}
M0857N  {v(N0857N)}
M0858A  {v(N0858A)}
M0858B  {v(N0858B)}
M0858C  {v(N0858C)}
M0858N  {v(N0858N)}
M0859A  {v(N0859A)}
M0859B  {v(N0859B)}
M0859C  {v(N0859C)}
M0859N  {v(N0859N)}
M0860A  {v(N0860A)}
M0860B  {v(N0860B)}
M0860C  {v(N0860C)}
M0860N  {v(N0860N)}
M0861A  {v(N0861A)}
M0861B  {v(N0861B)}
M0861C  {v(N0861C)}
M0861N  {v(N0861N)}
M0862A  {v(N0862A)}
M0862B  {v(N0862B)}
M0862C  {v(N0862C)}
M0862N  {v(N0862N)}
M0863A  {v(N0863A)}
M0863B  {v(N0863B)}
M0863C  {v(N0863C)}
M0863N  {v(N0863N)}
M0864A  {v(N0864A)}
M0864B  {v(N0864B)}
M0864C  {v(N0864C)}
M0864N  {v(N0864N)}
M0865A  {v(N0865A)}
M0865B  {v(N0865B)}
M0865C  {v(N0865C)}
M0865N  {v(N0865N)}
M0866A  {v(N0866A)}
M0866B  {v(N0866B)}
M0866C  {v(N0866C)}
M0866N  {v(N0866N)}
M0867A  {v(N0867A)}
M0867B  {v(N0867B)}
M0867C  {v(N0867C)}
M0867N  {v(N0867N)}
M0868A  {v(N0868A)}
M0868B  {v(N0868B)}
M0868C  {v(N0868C)}
M0868N  {v(N0868N)}
M0869A  {v(N0869A)}
M0869B  {v(N0869B)}
M0869C  {v(N0869C)}
M0869N  {v(N0869N)}
M0870A  {v(N0870A)}
M0870B  {v(N0870B)}
M0870C  {v(N0870C)}
M0870N  {v(N0870N)}
M0871A  {v(N0871A)}
M0871B  {v(N0871B)}
M0871C  {v(N0871C)}
M0871N  {v(N0871N)}
M0872A  {v(N0872A)}
M0872B  {v(N0872B)}
M0872C  {v(N0872C)}
M0872N  {v(N0872N)}
M0873A  {v(N0873A)}
M0873B  {v(N0873B)}
M0873C  {v(N0873C)}
M0873N  {v(N0873N)}
M0874A  {v(N0874A)}
M0874B  {v(N0874B)}
M0874C  {v(N0874C)}
M0874N  {v(N0874N)}
M0875A  {v(N0875A)}
M0875B  {v(N0875B)}
M0875C  {v(N0875C)}
M0875N  {v(N0875N)}
M0876A  {v(N0876A)}
M0876B  {v(N0876B)}
M0876C  {v(N0876C)}
M0876N  {v(N0876N)}
M0877A  {v(N0877A)}
M0877B  {v(N0877B)}
M0877C  {v(N0877C)}
M0877N  {v(N0877N)}
M0878A  {v(N0878A)}
M0878B  {v(N0878B)}
M0878C  {v(N0878C)}
M0878N  {v(N0878N)}
M0879A  {v(N0879A)}
M0879B  {v(N0879B)}
M0879C  {v(N0879C)}
M0879N  {v(N0879N)}
M0880A  {v(N0880A)}
M0880B  {v(N0880B)}
M0880C  {v(N0880C)}
M0880N  {v(N0880N)}
M0881A  {v(N0881A)}
M0881B  {v(N0881B)}
M0881C  {v(N0881C)}
M0881N  {v(N0881N)}
M0882A  {v(N0882A)}
M0882B  {v(N0882B)}
M0882C  {v(N0882C)}
M0882N  {v(N0882N)}
M0883A  {v(N0883A)}
M0883B  {v(N0883B)}
M0883C  {v(N0883C)}
M0883N  {v(N0883N)}
M0884A  {v(N0884A)}
M0884B  {v(N0884B)}
M0884C  {v(N0884C)}
M0884N  {v(N0884N)}
M0885A  {v(N0885A)}
M0885B  {v(N0885B)}
M0885C  {v(N0885C)}
M0885N  {v(N0885N)}
M0886A  {v(N0886A)}
M0886B  {v(N0886B)}
M0886C  {v(N0886C)}
M0886N  {v(N0886N)}
M0887A  {v(N0887A)}
M0887B  {v(N0887B)}
M0887C  {v(N0887C)}
M0887N  {v(N0887N)}
M0888A  {v(N0888A)}
M0888B  {v(N0888B)}
M0888C  {v(N0888C)}
M0888N  {v(N0888N)}
M0889A  {v(N0889A)}
M0889B  {v(N0889B)}
M0889C  {v(N0889C)}
M0889N  {v(N0889N)}
M0890A  {v(N0890A)}
M0890B  {v(N0890B)}
M0890C  {v(N0890C)}
M0890N  {v(N0890N)}
M0891A  {v(N0891A)}
M0891B  {v(N0891B)}
M0891C  {v(N0891C)}
M0891N  {v(N0891N)}
M0892A  {v(N0892A)}
M0892B  {v(N0892B)}
M0892C  {v(N0892C)}
M0892N  {v(N0892N)}
M0893A  {v(N0893A)}
M0893B  {v(N0893B)}
M0893C  {v(N0893C)}
M0893N  {v(N0893N)}
M0894A  {v(N0894A)}
M0894B  {v(N0894B)}
M0894C  {v(N0894C)}
M0894N  {v(N0894N)}
M0895A  {v(N0895A)}
M0895B  {v(N0895B)}
M0895C  {v(N0895C)}
M0895N  {v(N0895N)}
M0896A  {v(N0896A)}
M0896B  {v(N0896B)}
M0896C  {v(N0896C)}
M0896N  {v(N0896N)}
M0897A  {v(N0897A)}
M0897B  {v(N0897B)}
M0897C  {v(N0897C)}
M0897N  {v(N0897N)}
M0898A  {v(N0898A)}
M0898B  {v(N0898B)}
M0898C  {v(N0898C)}
M0898N  {v(N0898N)}
M0899A  {v(N0899A)}
M0899B  {v(N0899B)}
M0899C  {v(N0899C)}
M0899N  {v(N0899N)}
M0900A  {v(N0900A)}
M0900B  {v(N0900B)}
M0900C  {v(N0900C)}
M0900N  {v(N0900N)}
M0901A  {v(N0901A)}
M0901B  {v(N0901B)}
M0901C  {v(N0901C)}
M0901N  {v(N0901N)}
M0902A  {v(N0902A)}
M0902B  {v(N0902B)}
M0902C  {v(N0902C)}
M0902N  {v(N0902N)}
M0903A  {v(N0903A)}
M0903B  {v(N0903B)}
M0903C  {v(N0903C)}
M0903N  {v(N0903N)}
M0904A  {v(N0904A)}
M0904B  {v(N0904B)}
M0904C  {v(N0904C)}
M0904N  {v(N0904N)}
M0905A  {v(N0905A)}
M0905B  {v(N0905B)}
M0905C  {v(N0905C)}
M0905N  {v(N0905N)}
M0906A  {v(N0906A)}
M0906B  {v(N0906B)}
M0906C  {v(N0906C)}
M0906N  {v(N0906N)}
M0907A  {v(N0907A)}
M0907B  {v(N0907B)}
M0907C  {v(N0907C)}
M0907N  {v(N0907N)}
M0908A  {v(N0908A)}
M0908B  {v(N0908B)}
M0908C  {v(N0908C)}
M0908N  {v(N0908N)}
M0909A  {v(N0909A)}
M0909B  {v(N0909B)}
M0909C  {v(N0909C)}
M0909N  {v(N0909N)}
M0910A  {v(N0910A)}
M0910B  {v(N0910B)}
M0910C  {v(N0910C)}
M0910N  {v(N0910N)}
M0911A  {v(N0911A)}
M0911B  {v(N0911B)}
M0911C  {v(N0911C)}
M0911N  {v(N0911N)}
M0912A  {v(N0912A)}
M0912B  {v(N0912B)}
M0912C  {v(N0912C)}
M0912N  {v(N0912N)}
M0913A  {v(N0913A)}
M0913B  {v(N0913B)}
M0913C  {v(N0913C)}
M0913N  {v(N0913N)}
M0914A  {v(N0914A)}
M0914B  {v(N0914B)}
M0914C  {v(N0914C)}
M0914N  {v(N0914N)}
M0915A  {v(N0915A)}
M0915B  {v(N0915B)}
M0915C  {v(N0915C)}
M0915N  {v(N0915N)}
M0916A  {v(N0916A)}
M0916B  {v(N0916B)}
M0916C  {v(N0916C)}
M0916N  {v(N0916N)}
M0917A  {v(N0917A)}
M0917B  {v(N0917B)}
M0917C  {v(N0917C)}
M0917N  {v(N0917N)}
M0918A  {v(N0918A)}
M0918B  {v(N0918B)}
M0918C  {v(N0918C)}
M0918N  {v(N0918N)}
M0919A  {v(N0919A)}
M0919B  {v(N0919B)}
M0919C  {v(N0919C)}
M0919N  {v(N0919N)}
M0920A  {v(N0920A)}
M0920B  {v(N0920B)}
M0920C  {v(N0920C)}
M0920N  {v(N0920N)}
M0921A  {v(N0921A)}
M0921B  {v(N0921B)}
M0921C  {v(N0921C)}
M0921N  {v(N0921N)}
M0922A  {v(N0922A)}
M0922B  {v(N0922B)}
M0922C  {v(N0922C)}
M0922N  {v(N0922N)}
M0923A  {v(N0923A)}
M0923B  {v(N0923B)}
M0923C  {v(N0923C)}
M0923N  {v(N0923N)}
M0924A  {v(N0924A)}
M0924B  {v(N0924B)}
M0924C  {v(N0924C)}
M0924N  {v(N0924N)}
M0925A  {v(N0925A)}
M0925B  {v(N0925B)}
M0925C  {v(N0925C)}
M0925N  {v(N0925N)}
M0926A  {v(N0926A)}
M0926B  {v(N0926B)}
M0926C  {v(N0926C)}
M0926N  {v(N0926N)}
M0927A  {v(N0927A)}
M0927B  {v(N0927B)}
M0927C  {v(N0927C)}
M0927N  {v(N0927N)}
M0928A  {v(N0928A)}
M0928B  {v(N0928B)}
M0928C  {v(N0928C)}
M0928N  {v(N0928N)}
M0929A  {v(N0929A)}
M0929B  {v(N0929B)}
M0929C  {v(N0929C)}
M0929N  {v(N0929N)}
M0930A  {v(N0930A)}
M0930B  {v(N0930B)}
M0930C  {v(N0930C)}
M0930N  {v(N0930N)}
M0931A  {v(N0931A)}
M0931B  {v(N0931B)}
M0931C  {v(N0931C)}
M0931N  {v(N0931N)}
M0932A  {v(N0932A)}
M0932B  {v(N0932B)}
M0932C  {v(N0932C)}
M0932N  {v(N0932N)}
M0933A  {v(N0933A)}
M0933B  {v(N0933B)}
M0933C  {v(N0933C)}
M0933N  {v(N0933N)}
M0934A  {v(N0934A)}
M0934B  {v(N0934B)}
M0934C  {v(N0934C)}
M0934N  {v(N0934N)}
M0935A  {v(N0935A)}
M0935B  {v(N0935B)}
M0935C  {v(N0935C)}
M0935N  {v(N0935N)}
M0936A  {v(N0936A)}
M0936B  {v(N0936B)}
M0936C  {v(N0936C)}
M0936N  {v(N0936N)}
M0937A  {v(N0937A)}
M0937B  {v(N0937B)}
M0937C  {v(N0937C)}
M0937N  {v(N0937N)}
M0938A  {v(N0938A)}
M0938B  {v(N0938B)}
M0938C  {v(N0938C)}
M0938N  {v(N0938N)}
M0939A  {v(N0939A)}
M0939B  {v(N0939B)}
M0939C  {v(N0939C)}
M0939N  {v(N0939N)}
M0940A  {v(N0940A)}
M0940B  {v(N0940B)}
M0940C  {v(N0940C)}
M0940N  {v(N0940N)}
M0941A  {v(N0941A)}
M0941B  {v(N0941B)}
M0941C  {v(N0941C)}
M0941N  {v(N0941N)}
M0942A  {v(N0942A)}
M0942B  {v(N0942B)}
M0942C  {v(N0942C)}
M0942N  {v(N0942N)}
M0943A  {v(N0943A)}
M0943B  {v(N0943B)}
M0943C  {v(N0943C)}
M0943N  {v(N0943N)}
M0944A  {v(N0944A)}
M0944B  {v(N0944B)}
M0944C  {v(N0944C)}
M0944N  {v(N0944N)}
M0945A  {v(N0945A)}
M0945B  {v(N0945B)}
M0945C  {v(N0945C)}
M0945N  {v(N0945N)}
M0946A  {v(N0946A)}
M0946B  {v(N0946B)}
M0946C  {v(N0946C)}
M0946N  {v(N0946N)}
M0947A  {v(N0947A)}
M0947B  {v(N0947B)}
M0947C  {v(N0947C)}
M0947N  {v(N0947N)}
M0948A  {v(N0948A)}
M0948B  {v(N0948B)}
M0948C  {v(N0948C)}
M0948N  {v(N0948N)}
M0949A  {v(N0949A)}
M0949B  {v(N0949B)}
M0949C  {v(N0949C)}
M0949N  {v(N0949N)}
M0950A  {v(N0950A)}
M0950B  {v(N0950B)}
M0950C  {v(N0950C)}
M0950N  {v(N0950N)}
M0951A  {v(N0951A)}
M0951B  {v(N0951B)}
M0951C  {v(N0951C)}
M0951N  {v(N0951N)}
M0952A  {v(N0952A)}
M0952B  {v(N0952B)}
M0952C  {v(N0952C)}
M0952N  {v(N0952N)}
M0953A  {v(N0953A)}
M0953B  {v(N0953B)}
M0953C  {v(N0953C)}
M0953N  {v(N0953N)}
M0954A  {v(N0954A)}
M0954B  {v(N0954B)}
M0954C  {v(N0954C)}
M0954N  {v(N0954N)}
M0955A  {v(N0955A)}
M0955B  {v(N0955B)}
M0955C  {v(N0955C)}
M0955N  {v(N0955N)}
M0956A  {v(N0956A)}
M0956B  {v(N0956B)}
M0956C  {v(N0956C)}
M0956N  {v(N0956N)}
M0957A  {v(N0957A)}
M0957B  {v(N0957B)}
M0957C  {v(N0957C)}
M0957N  {v(N0957N)}
M0958A  {v(N0958A)}
M0958B  {v(N0958B)}
M0958C  {v(N0958C)}
M0958N  {v(N0958N)}
M0959A  {v(N0959A)}
M0959B  {v(N0959B)}
M0959C  {v(N0959C)}
M0959N  {v(N0959N)}
M0960A  {v(N0960A)}
M0960B  {v(N0960B)}
M0960C  {v(N0960C)}
M0960N  {v(N0960N)}
M0961A  {v(N0961A)}
M0961B  {v(N0961B)}
M0961C  {v(N0961C)}
M0961N  {v(N0961N)}
M0962A  {v(N0962A)}
M0962B  {v(N0962B)}
M0962C  {v(N0962C)}
M0962N  {v(N0962N)}
M0963A  {v(N0963A)}
M0963B  {v(N0963B)}
M0963C  {v(N0963C)}
M0963N  {v(N0963N)}
M0964A  {v(N0964A)}
M0964B  {v(N0964B)}
M0964C  {v(N0964C)}
M0964N  {v(N0964N)}
M0965A  {v(N0965A)}
M0965B  {v(N0965B)}
M0965C  {v(N0965C)}
M0965N  {v(N0965N)}
M0966A  {v(N0966A)}
M0966B  {v(N0966B)}
M0966C  {v(N0966C)}
M0966N  {v(N0966N)}
M0967A  {v(N0967A)}
M0967B  {v(N0967B)}
M0967C  {v(N0967C)}
M0967N  {v(N0967N)}
M0968A  {v(N0968A)}
M0968B  {v(N0968B)}
M0968C  {v(N0968C)}
M0968N  {v(N0968N)}
M0969A  {v(N0969A)}
M0969B  {v(N0969B)}
M0969C  {v(N0969C)}
M0969N  {v(N0969N)}
M0970A  {v(N0970A)}
M0970B  {v(N0970B)}
M0970C  {v(N0970C)}
M0970N  {v(N0970N)}
M0971A  {v(N0971A)}
M0971B  {v(N0971B)}
M0971C  {v(N0971C)}
M0971N  {v(N0971N)}
M0972A  {v(N0972A)}
M0972B  {v(N0972B)}
M0972C  {v(N0972C)}
M0972N  {v(N0972N)}
M0973A  {v(N0973A)}
M0973B  {v(N0973B)}
M0973C  {v(N0973C)}
M0973N  {v(N0973N)}
M0974A  {v(N0974A)}
M0974B  {v(N0974B)}
M0974C  {v(N0974C)}
M0974N  {v(N0974N)}
M0975A  {v(N0975A)}
M0975B  {v(N0975B)}
M0975C  {v(N0975C)}
M0975N  {v(N0975N)}
M0976A  {v(N0976A)}
M0976B  {v(N0976B)}
M0976C  {v(N0976C)}
M0976N  {v(N0976N)}
M0977A  {v(N0977A)}
M0977B  {v(N0977B)}
M0977C  {v(N0977C)}
M0977N  {v(N0977N)}
M0978A  {v(N0978A)}
M0978B  {v(N0978B)}
M0978C  {v(N0978C)}
M0978N  {v(N0978N)}
M0979A  {v(N0979A)}
M0979B  {v(N0979B)}
M0979C  {v(N0979C)}
M0979N  {v(N0979N)}
M0980A  {v(N0980A)}
M0980B  {v(N0980B)}
M0980C  {v(N0980C)}
M0980N  {v(N0980N)}
M0981A  {v(N0981A)}
M0981B  {v(N0981B)}
M0981C  {v(N0981C)}
M0981N  {v(N0981N)}
M0982A  {v(N0982A)}
M0982B  {v(N0982B)}
M0982C  {v(N0982C)}
M0982N  {v(N0982N)}
M0983A  {v(N0983A)}
M0983B  {v(N0983B)}
M0983C  {v(N0983C)}
M0983N  {v(N0983N)}
M0984A  {v(N0984A)}
M0984B  {v(N0984B)}
M0984C  {v(N0984C)}
M0984N  {v(N0984N)}
M0985A  {v(N0985A)}
M0985B  {v(N0985B)}
M0985C  {v(N0985C)}
M0985N  {v(N0985N)}
M0986A  {v(N0986A)}
M0986B  {v(N0986B)}
M0986C  {v(N0986C)}
M0986N  {v(N0986N)}
M0987A  {v(N0987A)}
M0987B  {v(N0987B)}
M0987C  {v(N0987C)}
M0987N  {v(N0987N)}
M0988A  {v(N0988A)}
M0988B  {v(N0988B)}
M0988C  {v(N0988C)}
M0988N  {v(N0988N)}
M0989A  {v(N0989A)}
M0989B  {v(N0989B)}
M0989C  {v(N0989C)}
M0989N  {v(N0989N)}
M0990A  {v(N0990A)}
M0990B  {v(N0990B)}
M0990C  {v(N0990C)}
M0990N  {v(N0990N)}
M0991A  {v(N0991A)}
M0991B  {v(N0991B)}
M0991C  {v(N0991C)}
M0991N  {v(N0991N)}
M0992A  {v(N0992A)}
M0992B  {v(N0992B)}
M0992C  {v(N0992C)}
M0992N  {v(N0992N)}
M0993A  {v(N0993A)}
M0993B  {v(N0993B)}
M0993C  {v(N0993C)}
M0993N  {v(N0993N)}
M0994A  {v(N0994A)}
M0994B  {v(N0994B)}
M0994C  {v(N0994C)}
M0994N  {v(N0994N)}
M0995A  {v(N0995A)}
M0995B  {v(N0995B)}
M0995C  {v(N0995C)}
M0995N  {v(N0995N)}
M0996A  {v(N0996A)}
M0996B  {v(N0996B)}
M0996C  {v(N0996C)}
M0996N  {v(N0996N)}
M0997A  {v(N0997A)}
M0997B  {v(N0997B)}
M0997C  {v(N0997C)}
M0997N  {v(N0997N)}
M0998A  {v(N0998A)}
M0998B  {v(N0998B)}
M0998C  {v(N0998C)}
M0998N  {v(N0998N)}
M0999A  {v(N0999A)}
M0999B  {v(N0999B)}
M0999C  {v(N0999C)}
M0999N  {v(N0999N)}
M1000A  {v(N1000A)}
M1000B  {v(N1000B)}
M1000C  {v(N1000C)}
M1000N  {v(N1000N)}
M1001A  {v(N1001A)}
M1001B  {v(N1001B)}
M1001C  {v(N1001C)}
M1001N  {v(N1001N)}
M1002A  {v(N1002A)}
M1002B  {v(N1002B)}
M1002C  {v(N1002C)}
M1002N  {v(N1002N)}
M1003A  {v(N1003A)}
M1003B  {v(N1003B)}
M1003C  {v(N1003C)}
M1003N  {v(N1003N)}
M1004A  {v(N1004A)}
M1004B  {v(N1004B)}
M1004C  {v(N1004C)}
M1004N  {v(N1004N)}
M1005A  {v(N1005A)}
M1005B  {v(N1005B)}
M1005C  {v(N1005C)}
M1005N  {v(N1005N)}
M1006A  {v(N1006A)}
M1006B  {v(N1006B)}
M1006C  {v(N1006C)}
M1006N  {v(N1006N)}
M1007A  {v(N1007A)}
M1007B  {v(N1007B)}
M1007C  {v(N1007C)}
M1007N  {v(N1007N)}
M1008A  {v(N1008A)}
M1008B  {v(N1008B)}
M1008C  {v(N1008C)}
M1008N  {v(N1008N)}
M1009A  {v(N1009A)}
M1009B  {v(N1009B)}
M1009C  {v(N1009C)}
M1009N  {v(N1009N)}
M1010A  {v(N1010A)}
M1010B  {v(N1010B)}
M1010C  {v(N1010C)}
M1010N  {v(N1010N)}
M1011A  {v(N1011A)}
M1011B  {v(N1011B)}
M1011C  {v(N1011C)}
M1011N  {v(N1011N)}
M1012A  {v(N1012A)}
M1012B  {v(N1012B)}
M1012C  {v(N1012C)}
M1012N  {v(N1012N)}
M1013A  {v(N1013A)}
M1013B  {v(N1013B)}
M1013C  {v(N1013C)}
M1013N  {v(N1013N)}
M1014A  {v(N1014A)}
M1014B  {v(N1014B)}
M1014C  {v(N1014C)}
M1014N  {v(N1014N)}
M1015A  {v(N1015A)}
M1015B  {v(N1015B)}
M1015C  {v(N1015C)}
M1015N  {v(N1015N)}
M1016A  {v(N1016A)}
M1016B  {v(N1016B)}
M1016C  {v(N1016C)}
M1016N  {v(N1016N)}
OUTPUT
   L0001A
   R0001A
   L0001B
   R0001B
   L0001C
   R0001C
   L0001N
   R0001N
   L0002A
   R0002A
   L0002B
   R0002B
   L0002C
   R0002C
   L0002N
   R0002N
   L0003A
   R0003A
   L0003B
   R0003B
   L0003C
   R0003C
   L0003N
   R0003N
   L0004A
   R0004A
   L0004B
   R0004B
   L0004C
   R0004C
   L0004N
   R0004N
   L0005A
   R0005A
   L0005B
   R0005B
   L0005C
   R0005C
   L0005N
   R0005N
   L0006A
   R0006A
   L0006B
   R0006B
   L0006C
   R0006C
   L0006N
   R0006N
   L0007A
   R0007A
   L0007B
   R0007B
   L0007C
   R0007C
   L0007N
   R0007N
   L0008A
   R0008A
   L0008B
   R0008B
   L0008C
   R0008C
   L0008N
   R0008N
   L0009A
   R0009A
   L0009B
   R0009B
   L0009C
   R0009C
   L0009N
   R0009N
   L0010A
   R0010A
   L0010B
   R0010B
   L0010C
   R0010C
   L0010N
   R0010N
   L0011A
   R0011A
   L0011B
   R0011B
   L0011C
   R0011C
   L0011N
   R0011N
   L0012A
   R0012A
   L0012B
   R0012B
   L0012C
   R0012C
   L0012N
   R0012N
   L0013A
   R0013A
   L0013B
   R0013B
   L0013C
   R0013C
   L0013N
   R0013N
   L0014A
   R0014A
   L0014B
   R0014B
   L0014C
   R0014C
   L0014N
   R0014N
   L0015A
   R0015A
   L0015B
   R0015B
   L0015C
   R0015C
   L0015N
   R0015N
   L0016A
   R0016A
   L0016B
   R0016B
   L0016C
   R0016C
   L0016N
   R0016N
   L0017A
   R0017A
   L0017B
   R0017B
   L0017C
   R0017C
   L0017N
   R0017N
   L0018A
   R0018A
   L0018B
   R0018B
   L0018C
   R0018C
   L0018N
   R0018N
   L0019A
   R0019A
   L0019B
   R0019B
   L0019C
   R0019C
   L0019N
   R0019N
   L0020A
   R0020A
   L0020B
   R0020B
   L0020C
   R0020C
   L0020N
   R0020N
   L0021A
   R0021A
   L0021B
   R0021B
   L0021C
   R0021C
   L0021N
   R0021N
   L0022A
   R0022A
   L0022B
   R0022B
   L0022C
   R0022C
   L0022N
   R0022N
   L0023A
   R0023A
   L0023B
   R0023B
   L0023C
   R0023C
   L0023N
   R0023N
   L0024A
   R0024A
   L0024B
   R0024B
   L0024C
   R0024C
   L0024N
   R0024N
   L0025A
   R0025A
   L0025B
   R0025B
   L0025C
   R0025C
   L0025N
   R0025N
   L0026A
   R0026A
   L0026B
   R0026B
   L0026C
   R0026C
   L0026N
   R0026N
   L0027A
   R0027A
   L0027B
   R0027B
   L0027C
   R0027C
   L0027N
   R0027N
   L0028A
   R0028A
   L0028B
   R0028B
   L0028C
   R0028C
   L0028N
   R0028N
   L0029A
   R0029A
   L0029B
   R0029B
   L0029C
   R0029C
   L0029N
   R0029N
   L0030A
   R0030A
   L0030B
   R0030B
   L0030C
   R0030C
   L0030N
   R0030N
   L0031A
   R0031A
   L0031B
   R0031B
   L0031C
   R0031C
   L0031N
   R0031N
   L0032A
   R0032A
   L0032B
   R0032B
   L0032C
   R0032C
   L0032N
   R0032N
   L0033A
   R0033A
   L0033B
   R0033B
   L0033C
   R0033C
   L0033N
   R0033N
   L0034A
   R0034A
   L0034B
   R0034B
   L0034C
   R0034C
   L0034N
   R0034N
   L0035A
   R0035A
   L0035B
   R0035B
   L0035C
   R0035C
   L0035N
   R0035N
   L0036A
   R0036A
   L0036B
   R0036B
   L0036C
   R0036C
   L0036N
   R0036N
   L0037A
   R0037A
   L0037B
   R0037B
   L0037C
   R0037C
   L0037N
   R0037N
   L0038A
   R0038A
   L0038B
   R0038B
   L0038C
   R0038C
   L0038N
   R0038N
   L0039A
   R0039A
   L0039B
   R0039B
   L0039C
   R0039C
   L0039N
   R0039N
   L0040A
   R0040A
   L0040B
   R0040B
   L0040C
   R0040C
   L0040N
   R0040N
   L0041A
   R0041A
   L0041B
   R0041B
   L0041C
   R0041C
   L0041N
   R0041N
   L0042A
   R0042A
   L0042B
   R0042B
   L0042C
   R0042C
   L0042N
   R0042N
   L0043A
   R0043A
   L0043B
   R0043B
   L0043C
   R0043C
   L0043N
   R0043N
   L0044A
   R0044A
   L0044B
   R0044B
   L0044C
   R0044C
   L0044N
   R0044N
   L0045A
   R0045A
   L0045B
   R0045B
   L0045C
   R0045C
   L0045N
   R0045N
   L0046A
   R0046A
   L0046B
   R0046B
   L0046C
   R0046C
   L0046N
   R0046N
   L0047A
   R0047A
   L0047B
   R0047B
   L0047C
   R0047C
   L0047N
   R0047N
   L0048A
   R0048A
   L0048B
   R0048B
   L0048C
   R0048C
   L0048N
   R0048N
   L0049A
   R0049A
   L0049B
   R0049B
   L0049C
   R0049C
   L0049N
   R0049N
   L0050A
   R0050A
   L0050B
   R0050B
   L0050C
   R0050C
   L0050N
   R0050N
   L0051A
   R0051A
   L0051B
   R0051B
   L0051C
   R0051C
   L0051N
   R0051N
   L0052A
   R0052A
   L0052B
   R0052B
   L0052C
   R0052C
   L0052N
   R0052N
   L0053A
   R0053A
   L0053B
   R0053B
   L0053C
   R0053C
   L0053N
   R0053N
   L0054A
   R0054A
   L0054B
   R0054B
   L0054C
   R0054C
   L0054N
   R0054N
   L0055A
   R0055A
   L0055B
   R0055B
   L0055C
   R0055C
   L0055N
   R0055N
   L0056A
   R0056A
   L0056B
   R0056B
   L0056C
   R0056C
   L0056N
   R0056N
   L0057A
   R0057A
   L0057B
   R0057B
   L0057C
   R0057C
   L0057N
   R0057N
   L0058A
   R0058A
   L0058B
   R0058B
   L0058C
   R0058C
   L0058N
   R0058N
   L0059A
   R0059A
   L0059B
   R0059B
   L0059C
   R0059C
   L0059N
   R0059N
   L0060A
   R0060A
   L0060B
   R0060B
   L0060C
   R0060C
   L0060N
   R0060N
   L0061A
   R0061A
   L0061B
   R0061B
   L0061C
   R0061C
   L0061N
   R0061N
   L0062A
   R0062A
   L0062B
   R0062B
   L0062C
   R0062C