BEGIN NEW DATA CASE
C --------------------------------------------------------
C Generated by YALUK DRAW 2.0
C Developed by: Ernesto Pérez G
C eperezg@unal.edu.co
C Universidad Nacional de Colombia
C File Created on: 12/14/2020 9:46:21 AM
C --------------------------------------------------------
C Project Name:L72_502_circuitC12.0
C   
C  dT  >< Tmax >< Xopt >< Copt > 
.5000E-7.3500E-4
  999999     100       0       0       1       0       0       0       0
/MODELS
MODELS
INPUT
M0942A  {v(N0942A)}
M0942B  {v(N0942B)}
M0942C  {v(N0942C)}
M0942N  {v(N0942N)}
M0943A  {v(N0943A)}
M0943B  {v(N0943B)}
M0943C  {v(N0943C)}
M0943N  {v(N0943N)}
M0944A  {v(N0944A)}
M0944B  {v(N0944B)}
M0944C  {v(N0944C)}
M0944N  {v(N0944N)}
M0945A  {v(N0945A)}
M0945B  {v(N0945B)}
M0945C  {v(N0945C)}
M0945N  {v(N0945N)}
M0946A  {v(N0946A)}
M0946B  {v(N0946B)}
M0946C  {v(N0946C)}
M0946N  {v(N0946N)}
M0947A  {v(N0947A)}
M0947B  {v(N0947B)}
M0947C  {v(N0947C)}
M0947N  {v(N0947N)}
M0948A  {v(N0948A)}
M0948B  {v(N0948B)}
M0948C  {v(N0948C)}
M0948N  {v(N0948N)}
M0949A  {v(N0949A)}
M0949B  {v(N0949B)}
M0949C  {v(N0949C)}
M0949N  {v(N0949N)}
M0950A  {v(N0950A)}
M0950B  {v(N0950B)}
M0950C  {v(N0950C)}
M0950N  {v(N0950N)}
M0951A  {v(N0951A)}
M0951B  {v(N0951B)}
M0951C  {v(N0951C)}
M0951N  {v(N0951N)}
M0952A  {v(N0952A)}
M0952B  {v(N0952B)}
M0952C  {v(N0952C)}
M0952N  {v(N0952N)}
M0953A  {v(N0953A)}
M0953B  {v(N0953B)}
M0953C  {v(N0953C)}
M0953N  {v(N0953N)}
M0954A  {v(N0954A)}
M0954B  {v(N0954B)}
M0954C  {v(N0954C)}
M0954N  {v(N0954N)}
M0955A  {v(N0955A)}
M0955B  {v(N0955B)}
M0955C  {v(N0955C)}
M0955N  {v(N0955N)}
M0956A  {v(N0956A)}
M0956B  {v(N0956B)}
M0956C  {v(N0956C)}
M0956N  {v(N0956N)}
M0957A  {v(N0957A)}
M0957B  {v(N0957B)}
M0957C  {v(N0957C)}
M0957N  {v(N0957N)}
M0958A  {v(N0958A)}
M0958B  {v(N0958B)}
M0958C  {v(N0958C)}
M0958N  {v(N0958N)}
M0959A  {v(N0959A)}
M0959B  {v(N0959B)}
M0959C  {v(N0959C)}
M0959N  {v(N0959N)}
M0960A  {v(N0960A)}
M0960B  {v(N0960B)}
M0960C  {v(N0960C)}
M0960N  {v(N0960N)}
M0961A  {v(N0961A)}
M0961B  {v(N0961B)}
M0961C  {v(N0961C)}
M0961N  {v(N0961N)}
M0962A  {v(N0962A)}
M0962B  {v(N0962B)}
M0962C  {v(N0962C)}
M0962N  {v(N0962N)}
M0963A  {v(N0963A)}
M0963B  {v(N0963B)}
M0963C  {v(N0963C)}
M0963N  {v(N0963N)}
M0964A  {v(N0964A)}
M0964B  {v(N0964B)}
M0964C  {v(N0964C)}
M0964N  {v(N0964N)}
M0965A  {v(N0965A)}
M0965B  {v(N0965B)}
M0965C  {v(N0965C)}
M0965N  {v(N0965N)}
M0966A  {v(N0966A)}
M0966B  {v(N0966B)}
M0966C  {v(N0966C)}
M0966N  {v(N0966N)}
M0967A  {v(N0967A)}
M0967B  {v(N0967B)}
M0967C  {v(N0967C)}
M0967N  {v(N0967N)}
M0968A  {v(N0968A)}
M0968B  {v(N0968B)}
M0968C  {v(N0968C)}
M0968N  {v(N0968N)}
M0969A  {v(N0969A)}
M0969B  {v(N0969B)}
M0969C  {v(N0969C)}
M0969N  {v(N0969N)}
M0970A  {v(N0970A)}
M0970B  {v(N0970B)}
M0970C  {v(N0970C)}
M0970N  {v(N0970N)}
M0971A  {v(N0971A)}
M0971B  {v(N0971B)}
M0971C  {v(N0971C)}
M0971N  {v(N0971N)}
M0972A  {v(N0972A)}
M0972B  {v(N0972B)}
M0972C  {v(N0972C)}
M0972N  {v(N0972N)}
M0973A  {v(N0973A)}
M0973B  {v(N0973B)}
M0973C  {v(N0973C)}
M0973N  {v(N0973N)}
M0974A  {v(N0974A)}
M0974B  {v(N0974B)}
M0974C  {v(N0974C)}
M0974N  {v(N0974N)}
M0975A  {v(N0975A)}
M0975B  {v(N0975B)}
M0975C  {v(N0975C)}
M0975N  {v(N0975N)}
M0976A  {v(N0976A)}
M0976B  {v(N0976B)}
M0976C  {v(N0976C)}
M0976N  {v(N0976N)}
M0977A  {v(N0977A)}
M0977B  {v(N0977B)}
M0977C  {v(N0977C)}
M0977N  {v(N0977N)}
M0978A  {v(N0978A)}
M0978B  {v(N0978B)}
M0978C  {v(N0978C)}
M0978N  {v(N0978N)}
M0979A  {v(N0979A)}
M0979B  {v(N0979B)}
M0979C  {v(N0979C)}
M0979N  {v(N0979N)}
M0980A  {v(N0980A)}
M0980B  {v(N0980B)}
M0980C  {v(N0980C)}
M0980N  {v(N0980N)}
M0981A  {v(N0981A)}
M0981B  {v(N0981B)}
M0981C  {v(N0981C)}
M0981N  {v(N0981N)}
M0982A  {v(N0982A)}
M0982B  {v(N0982B)}
M0982C  {v(N0982C)}
M0982N  {v(N0982N)}
M0983A  {v(N0983A)}
M0983B  {v(N0983B)}
M0983C  {v(N0983C)}
M0983N  {v(N0983N)}
M0984A  {v(N0984A)}
M0984B  {v(N0984B)}
M0984C  {v(N0984C)}
M0984N  {v(N0984N)}
M0985A  {v(N0985A)}
M0985B  {v(N0985B)}
M0985C  {v(N0985C)}
M0985N  {v(N0985N)}
M0986A  {v(N0986A)}
M0986B  {v(N0986B)}
M0986C  {v(N0986C)}
M0986N  {v(N0986N)}
M0987A  {v(N0987A)}
M0987B  {v(N0987B)}
M0987C  {v(N0987C)}
M0987N  {v(N0987N)}
M0988A  {v(N0988A)}
M0988B  {v(N0988B)}
M0988C  {v(N0988C)}
M0988N  {v(N0988N)}
M0989A  {v(N0989A)}
M0989B  {v(N0989B)}
M0989C  {v(N0989C)}
M0989N  {v(N0989N)}
M0990A  {v(N0990A)}
M0990B  {v(N0990B)}
M0990C  {v(N0990C)}
M0990N  {v(N0990N)}
M0991A  {v(N0991A)}
M0991B  {v(N0991B)}
M0991C  {v(N0991C)}
M0991N  {v(N0991N)}
M0992A  {v(N0992A)}
M0992B  {v(N0992B)}
M0992C  {v(N0992C)}
M0992N  {v(N0992N)}
M0993A  {v(N0993A)}
M0993B  {v(N0993B)}
M0993C  {v(N0993C)}
M0993N  {v(N0993N)}
M0994A  {v(N0994A)}
M0994B  {v(N0994B)}
M0994C  {v(N0994C)}
M0994N  {v(N0994N)}
M0995A  {v(N0995A)}
M0995B  {v(N0995B)}
M0995C  {v(N0995C)}
M0995N  {v(N0995N)}
M0996A  {v(N0996A)}
M0996B  {v(N0996B)}
M0996C  {v(N0996C)}
M0996N  {v(N0996N)}
M0997A  {v(N0997A)}
M0997B  {v(N0997B)}
M0997C  {v(N0997C)}
M0997N  {v(N0997N)}
M0998A  {v(N0998A)}
M0998B  {v(N0998B)}
M0998C  {v(N0998C)}
M0998N  {v(N0998N)}
M0999A  {v(N0999A)}
M0999B  {v(N0999B)}
M0999C  {v(N0999C)}
M0999N  {v(N0999N)}
M1000A  {v(N1000A)}
M1000B  {v(N1000B)}
M1000C  {v(N1000C)}
M1000N  {v(N1000N)}
M1001A  {v(N1001A)}
M1001B  {v(N1001B)}
M1001C  {v(N1001C)}
M1001N  {v(N1001N)}
M1002A  {v(N1002A)}
M1002B  {v(N1002B)}
M1002C  {v(N1002C)}
M1002N  {v(N1002N)}
M1003A  {v(N1003A)}
M1003B  {v(N1003B)}
M1003C  {v(N1003C)}
M1003N  {v(N1003N)}
M1004A  {v(N1004A)}
M1004B  {v(N1004B)}
M1004C  {v(N1004C)}
M1004N  {v(N1004N)}
M1005A  {v(N1005A)}
M1005B  {v(N1005B)}
M1005C  {v(N1005C)}
M1005N  {v(N1005N)}
M1006A  {v(N1006A)}
M1006B  {v(N1006B)}
M1006C  {v(N1006C)}
M1006N  {v(N1006N)}
M1007A  {v(N1007A)}
M1007B  {v(N1007B)}
M1007C  {v(N1007C)}
M1007N  {v(N1007N)}
M1008A  {v(N1008A)}
M1008B  {v(N1008B)}
M1008C  {v(N1008C)}
M1008N  {v(N1008N)}
M1009A  {v(N1009A)}
M1009B  {v(N1009B)}
M1009C  {v(N1009C)}
M1009N  {v(N1009N)}
M1010A  {v(N1010A)}
M1010B  {v(N1010B)}
M1010C  {v(N1010C)}
M1010N  {v(N1010N)}
M1011A  {v(N1011A)}
M1011B  {v(N1011B)}
M1011C  {v(N1011C)}
M1011N  {v(N1011N)}
M1012A  {v(N1012A)}
M1012B  {v(N1012B)}
M1012C  {v(N1012C)}
M1012N  {v(N1012N)}
M1013A  {v(N1013A)}
M1013B  {v(N1013B)}
M1013C  {v(N1013C)}
M1013N  {v(N1013N)}
M1014A  {v(N1014A)}
M1014B  {v(N1014B)}
M1014C  {v(N1014C)}
M1014N  {v(N1014N)}
M1015A  {v(N1015A)}
M1015B  {v(N1015B)}
M1015C  {v(N1015C)}
M1015N  {v(N1015N)}
M1016A  {v(N1016A)}
M1016B  {v(N1016B)}
M1016C  {v(N1016C)}
M1016N  {v(N1016N)}
M1017A  {v(N1017A)}
M1017B  {v(N1017B)}
M1017C  {v(N1017C)}
M1017N  {v(N1017N)}
M1018A  {v(N1018A)}
M1018B  {v(N1018B)}
M1018C  {v(N1018C)}
M1018N  {v(N1018N)}
M1019A  {v(N1019A)}
M1019B  {v(N1019B)}
M1019C  {v(N1019C)}
M1019N  {v(N1019N)}
M1020A  {v(N1020A)}
M1020B  {v(N1020B)}
M1020C  {v(N1020C)}
M1020N  {v(N1020N)}
M1021A  {v(N1021A)}
M1021B  {v(N1021B)}
M1021C  {v(N1021C)}
M1021N  {v(N1021N)}
M1022A  {v(N1022A)}
M1022B  {v(N1022B)}
M1022C  {v(N1022C)}
M1022N  {v(N1022N)}
M1023A  {v(N1023A)}
M1023B  {v(N1023B)}
M1023C  {v(N1023C)}
M1023N  {v(N1023N)}
M1024A  {v(N1024A)}
M1024B  {v(N1024B)}
M1024C  {v(N1024C)}
M1024N  {v(N1024N)}
M1025A  {v(N1025A)}
M1025B  {v(N1025B)}
M1025C  {v(N1025C)}
M1025N  {v(N1025N)}
M1026A  {v(N1026A)}
M1026B  {v(N1026B)}
M1026C  {v(N1026C)}
M1026N  {v(N1026N)}
M1027A  {v(N1027A)}
M1027B  {v(N1027B)}
M1027C  {v(N1027C)}
M1027N  {v(N1027N)}
M1028A  {v(N1028A)}
M1028B  {v(N1028B)}
M1028C  {v(N1028C)}
M1028N  {v(N1028N)}
M1029A  {v(N1029A)}
M1029B  {v(N1029B)}
M1029C  {v(N1029C)}
M1029N  {v(N1029N)}
M1031A  {v(N1031A)}
M1031B  {v(N1031B)}
M1031C  {v(N1031C)}
M1031N  {v(N1031N)}
M1032A  {v(N1032A)}
M1032B  {v(N1032B)}
M1032C  {v(N1032C)}
M1032N  {v(N1032N)}
M1033A  {v(N1033A)}
M1033B  {v(N1033B)}
M1033C  {v(N1033C)}
M1033N  {v(N1033N)}
M1034A  {v(N1034A)}
M1034B  {v(N1034B)}
M1034C  {v(N1034C)}
M1034N  {v(N1034N)}
M1035A  {v(N1035A)}
M1035B  {v(N1035B)}
M1035C  {v(N1035C)}
M1035N  {v(N1035N)}
M1036A  {v(N1036A)}
M1036B  {v(N1036B)}
M1036C  {v(N1036C)}
M1036N  {v(N1036N)}
M1037A  {v(N1037A)}
M1037B  {v(N1037B)}
M1037C  {v(N1037C)}
M1037N  {v(N1037N)}
M1038A  {v(N1038A)}
M1038B  {v(N1038B)}
M1038C  {v(N1038C)}
M1038N  {v(N1038N)}
M1039A  {v(N1039A)}
M1039B  {v(N1039B)}
M1039C  {v(N1039C)}
M1039N  {v(N1039N)}
M1040A  {v(N1040A)}
M1040B  {v(N1040B)}
M1040C  {v(N1040C)}
M1040N  {v(N1040N)}
M1041A  {v(N1041A)}
M1041B  {v(N1041B)}
M1041C  {v(N1041C)}
M1041N  {v(N1041N)}
M1042A  {v(N1042A)}
M1042B  {v(N1042B)}
M1042C  {v(N1042C)}
M1042N  {v(N1042N)}
M1043A  {v(N1043A)}
M1043B  {v(N1043B)}
M1043C  {v(N1043C)}
M1043N  {v(N1043N)}
M1044A  {v(N1044A)}
M1044B  {v(N1044B)}
M1044C  {v(N1044C)}
M1044N  {v(N1044N)}
M1045A  {v(N1045A)}
M1045B  {v(N1045B)}
M1045C  {v(N1045C)}
M1045N  {v(N1045N)}
M1046A  {v(N1046A)}
M1046B  {v(N1046B)}
M1046C  {v(N1046C)}
M1046N  {v(N1046N)}
M1047A  {v(N1047A)}
M1047B  {v(N1047B)}
M1047C  {v(N1047C)}
M1047N  {v(N1047N)}
M1048A  {v(N1048A)}
M1048B  {v(N1048B)}
M1048C  {v(N1048C)}
M1048N  {v(N1048N)}
M1049A  {v(N1049A)}
M1049B  {v(N1049B)}
M1049C  {v(N1049C)}
M1049N  {v(N1049N)}
M1050A  {v(N1050A)}
M1050B  {v(N1050B)}
M1050C  {v(N1050C)}
M1050N  {v(N1050N)}
M1051A  {v(N1051A)}
M1051B  {v(N1051B)}
M1051C  {v(N1051C)}
M1051N  {v(N1051N)}
M1052A  {v(N1052A)}
M1052B  {v(N1052B)}
M1052C  {v(N1052C)}
M1052N  {v(N1052N)}
M1053A  {v(N1053A)}
M1053B  {v(N1053B)}
M1053C  {v(N1053C)}
M1053N  {v(N1053N)}
M1054A  {v(N1054A)}
M1054B  {v(N1054B)}
M1054C  {v(N1054C)}
M1054N  {v(N1054N)}
M1055A  {v(N1055A)}
M1055B  {v(N1055B)}
M1055C  {v(N1055C)}
M1055N  {v(N1055N)}
M1056A  {v(N1056A)}
M1056B  {v(N1056B)}
M1056C  {v(N1056C)}
M1056N  {v(N1056N)}
M1057A  {v(N1057A)}
M1057B  {v(N1057B)}
M1057C  {v(N1057C)}
M1057N  {v(N1057N)}
M1058A  {v(N1058A)}
M1058B  {v(N1058B)}
M1058C  {v(N1058C)}
M1058N  {v(N1058N)}
M1059A  {v(N1059A)}
M1059B  {v(N1059B)}
M1059C  {v(N1059C)}
M1059N  {v(N1059N)}
M1060A  {v(N1060A)}
M1060B  {v(N1060B)}
M1060C  {v(N1060C)}
M1060N  {v(N1060N)}
M1061A  {v(N1061A)}
M1061B  {v(N1061B)}
M1061C  {v(N1061C)}
M1061N  {v(N1061N)}
M1062A  {v(N1062A)}
M1062B  {v(N1062B)}
M1062C  {v(N1062C)}
M1062N  {v(N1062N)}
M1063A  {v(N1063A)}
M1063B  {v(N1063B)}
M1063C  {v(N1063C)}
M1063N  {v(N1063N)}
M1064A  {v(N1064A)}
M1064B  {v(N1064B)}
M1064C  {v(N1064C)}
M1064N  {v(N1064N)}
M1065A  {v(N1065A)}
M1065B  {v(N1065B)}
M1065C  {v(N1065C)}
M1065N  {v(N1065N)}
M1066A  {v(N1066A)}
M1066B  {v(N1066B)}
M1066C  {v(N1066C)}
M1066N  {v(N1066N)}
M1067A  {v(N1067A)}
M1067B  {v(N1067B)}
M1067C  {v(N1067C)}
M1067N  {v(N1067N)}
M1068A  {v(N1068A)}
M1068B  {v(N1068B)}
M1068C  {v(N1068C)}
M1068N  {v(N1068N)}
M1069A  {v(N1069A)}
M1069B  {v(N1069B)}
M1069C  {v(N1069C)}
M1069N  {v(N1069N)}
M1070A  {v(N1070A)}
M1070B  {v(N1070B)}
M1070C  {v(N1070C)}
M1070N  {v(N1070N)}
M1071A  {v(N1071A)}
M1071B  {v(N1071B)}
M1071C  {v(N1071C)}
M1071N  {v(N1071N)}
M1072A  {v(N1072A)}
M1072B  {v(N1072B)}
M1072C  {v(N1072C)}
M1072N  {v(N1072N)}
M1073A  {v(N1073A)}
M1073B  {v(N1073B)}
M1073C  {v(N1073C)}
M1073N  {v(N1073N)}
M1074A  {v(N1074A)}
M1074B  {v(N1074B)}
M1074C  {v(N1074C)}
M1074N  {v(N1074N)}
M1075A  {v(N1075A)}
M1075B  {v(N1075B)}
M1075C  {v(N1075C)}
M1075N  {v(N1075N)}
M1076A  {v(N1076A)}
M1076B  {v(N1076B)}
M1076C  {v(N1076C)}
M1076N  {v(N1076N)}
M1077A  {v(N1077A)}
M1077B  {v(N1077B)}
M1077C  {v(N1077C)}
M1077N  {v(N1077N)}
M1078A  {v(N1078A)}
M1078B  {v(N1078B)}
M1078C  {v(N1078C)}
M1078N  {v(N1078N)}
M1079A  {v(N1079A)}
M1079B  {v(N1079B)}
M1079C  {v(N1079C)}
M1079N  {v(N1079N)}
M1080A  {v(N1080A)}
M1080B  {v(N1080B)}
M1080C  {v(N1080C)}
M1080N  {v(N1080N)}
M1081A  {v(N1081A)}
M1081B  {v(N1081B)}
M1081C  {v(N1081C)}
M1081N  {v(N1081N)}
M1082A  {v(N1082A)}
M1082B  {v(N1082B)}
M1082C  {v(N1082C)}
M1082N  {v(N1082N)}
M1083A  {v(N1083A)}
M1083B  {v(N1083B)}
M1083C  {v(N1083C)}
M1083N  {v(N1083N)}
M1084A  {v(N1084A)}
M1084B  {v(N1084B)}
M1084C  {v(N1084C)}
M1084N  {v(N1084N)}
M1085A  {v(N1085A)}
M1085B  {v(N1085B)}
M1085C  {v(N1085C)}
M1085N  {v(N1085N)}
M1086A  {v(N1086A)}
M1086B  {v(N1086B)}
M1086C  {v(N1086C)}
M1086N  {v(N1086N)}
M1087A  {v(N1087A)}
M1087B  {v(N1087B)}
M1087C  {v(N1087C)}
M1087N  {v(N1087N)}
M1088A  {v(N1088A)}
M1088B  {v(N1088B)}
M1088C  {v(N1088C)}
M1088N  {v(N1088N)}
M1089A  {v(N1089A)}
M1089B  {v(N1089B)}
M1089C  {v(N1089C)}
M1089N  {v(N1089N)}
M1090A  {v(N1090A)}
M1090B  {v(N1090B)}
M1090C  {v(N1090C)}
M1090N  {v(N1090N)}
M1091A  {v(N1091A)}
M1091B  {v(N1091B)}
M1091C  {v(N1091C)}
M1091N  {v(N1091N)}
M1092A  {v(N1092A)}
M1092B  {v(N1092B)}
M1092C  {v(N1092C)}
M1092N  {v(N1092N)}
M1093A  {v(N1093A)}
M1093B  {v(N1093B)}
M1093C  {v(N1093C)}
M1093N  {v(N1093N)}
M1094A  {v(N1094A)}
M1094B  {v(N1094B)}
M1094C  {v(N1094C)}
M1094N  {v(N1094N)}
M1095A  {v(N1095A)}
M1095B  {v(N1095B)}
M1095C  {v(N1095C)}
M1095N  {v(N1095N)}
M1096A  {v(N1096A)}
M1096B  {v(N1096B)}
M1096C  {v(N1096C)}
M1096N  {v(N1096N)}
M1097A  {v(N1097A)}
M1097B  {v(N1097B)}
M1097C  {v(N1097C)}
M1097N  {v(N1097N)}
M1098A  {v(N1098A)}
M1098B  {v(N1098B)}
M1098C  {v(N1098C)}
M1098N  {v(N1098N)}
M1099A  {v(N1099A)}
M1099B  {v(N1099B)}
M1099C  {v(N1099C)}
M1099N  {v(N1099N)}
M1100A  {v(N1100A)}
M1100B  {v(N1100B)}
M1100C  {v(N1100C)}
M1100N  {v(N1100N)}
M1101A  {v(N1101A)}
M1101B  {v(N1101B)}
M1101C  {v(N1101C)}
M1101N  {v(N1101N)}
M1102A  {v(N1102A)}
M1102B  {v(N1102B)}
M1102C  {v(N1102C)}
M1102N  {v(N1102N)}
M1103A  {v(N1103A)}
M1103B  {v(N1103B)}
M1103C  {v(N1103C)}
M1103N  {v(N1103N)}
M1104A  {v(N1104A)}
M1104B  {v(N1104B)}
M1104C  {v(N1104C)}
M1104N  {v(N1104N)}
M1105A  {v(N1105A)}
M1105B  {v(N1105B)}
M1105C  {v(N1105C)}
M1105N  {v(N1105N)}
M1106A  {v(N1106A)}
M1106B  {v(N1106B)}
M1106C  {v(N1106C)}
M1106N  {v(N1106N)}
M1107A  {v(N1107A)}
M1107B  {v(N1107B)}
M1107C  {v(N1107C)}
M1107N  {v(N1107N)}
M1108A  {v(N1108A)}
M1108B  {v(N1108B)}
M1108C  {v(N1108C)}
M1108N  {v(N1108N)}
M1918A  {v(N1918A)}
M1918B  {v(N1918B)}
M1918C  {v(N1918C)}
M1918N  {v(N1918N)}
M1919A  {v(N1919A)}
M1919B  {v(N1919B)}
M1919C  {v(N1919C)}
M1919N  {v(N1919N)}
M1920A  {v(N1920A)}
M1920B  {v(N1920B)}
M1920C  {v(N1920C)}
M1920N  {v(N1920N)}
M1921A  {v(N1921A)}
M1921B  {v(N1921B)}
M1921C  {v(N1921C)}
M1921N  {v(N1921N)}
M1922A  {v(N1922A)}
M1922B  {v(N1922B)}
M1922C  {v(N1922C)}
M1922N  {v(N1922N)}
M1923A  {v(N1923A)}
M1923B  {v(N1923B)}
M1923C  {v(N1923C)}
M1923N  {v(N1923N)}
M1924A  {v(N1924A)}
M1924B  {v(N1924B)}
M1924C  {v(N1924C)}
M1924N  {v(N1924N)}
M1925A  {v(N1925A)}
M1925B  {v(N1925B)}
M1925C  {v(N1925C)}
M1925N  {v(N1925N)}
M1926A  {v(N1926A)}
M1926B  {v(N1926B)}
M1926C  {v(N1926C)}
M1926N  {v(N1926N)}
M1927A  {v(N1927A)}
M1927B  {v(N1927B)}
M1927C  {v(N1927C)}
M1927N  {v(N1927N)}
M1928A  {v(N1928A)}
M1928B  {v(N1928B)}
M1928C  {v(N1928C)}
M1928N  {v(N1928N)}
M1929A  {v(N1929A)}
M1929B  {v(N1929B)}
M1929C  {v(N1929C)}
M1929N  {v(N1929N)}
M1930A  {v(N1930A)}
M1930B  {v(N1930B)}
M1930C  {v(N1930C)}
M1930N  {v(N1930N)}
M1931A  {v(N1931A)}
M1931B  {v(N1931B)}
M1931C  {v(N1931C)}
M1931N  {v(N1931N)}
M1932A  {v(N1932A)}
M1932B  {v(N1932B)}
M1932C  {v(N1932C)}
M1932N  {v(N1932N)}
M1933A  {v(N1933A)}
M1933B  {v(N1933B)}
M1933C  {v(N1933C)}
M1933N  {v(N1933N)}
M1934A  {v(N1934A)}
M1934B  {v(N1934B)}
M1934C  {v(N1934C)}
M1934N  {v(N1934N)}
M1935A  {v(N1935A)}
M1935B  {v(N1935B)}
M1935C  {v(N1935C)}
M1935N  {v(N1935N)}
M1936A  {v(N1936A)}
M1936B  {v(N1936B)}
M1936C  {v(N1936C)}
M1936N  {v(N1936N)}
M1937A  {v(N1937A)}
M1937B  {v(N1937B)}
M1937C  {v(N1937C)}
M1937N  {v(N1937N)}
M1938A  {v(N1938A)}
M1938B  {v(N1938B)}
M1938C  {v(N1938C)}
M1938N  {v(N1938N)}
M1939A  {v(N1939A)}
M1939B  {v(N1939B)}
M1939C  {v(N1939C)}
M1939N  {v(N1939N)}
M1940A  {v(N1940A)}
M1940B  {v(N1940B)}
M1940C  {v(N1940C)}
M1940N  {v(N1940N)}
M1941A  {v(N1941A)}
M1941B  {v(N1941B)}
M1941C  {v(N1941C)}
M1941N  {v(N1941N)}
M1942A  {v(N1942A)}
M1942B  {v(N1942B)}
M1942C  {v(N1942C)}
M1942N  {v(N1942N)}
M1943A  {v(N1943A)}
M1943B  {v(N1943B)}
M1943C  {v(N1943C)}
M1943N  {v(N1943N)}
M1944A  {v(N1944A)}
M1944B  {v(N1944B)}
M1944C  {v(N1944C)}
M1944N  {v(N1944N)}
OUTPUT
   L0001A
   R0001A
   L0001B
   R0001B
   L0001C
   R0001C
   L0001N
   R0001N
   L0002A
   R0002A
   L0002B
   R0002B
   L0002C
   R0002C
   L0002N
   R0002N
   L0003A
   R0003A
   L0003B
   R0003B
   L0003C
   R0003C
   L0003N
   R0003N
   L0004A
   R0004A
   L0004B
   R0004B
   L0004C
   R0004C
   L0004N
   R0004N
   L0005A
   R0005A
   L0005B
   R0005B
   L0005C
   R0005C
   L0005N
   R0005N
   L0006A
   R0006A
   L0006B
   R0006B
   L0006C
   R0006C
   L0006N
   R0006N
   L0007A
   R0007A
   L0007B
   R0007B
   L0007C
   R0007C
   L0007N
   R0007N
   L0008A
   R0008A
   L0008B
   R0008B
   L0008C
   R0008C
   L0008N
   R0008N
   L0009A
   R0009A
   L0009B
   R0009B
   L0009C
   R0009C
   L0009N
   R0009N
   L0010A
   R0010A
   L0010B
   R0010B
   L0010C
   R0010C
   L0010N
   R0010N
   L0011A
   R0011A
   L0011B
   R0011B
   L0011C
   R0011C
   L0011N
   R0011N
   L0012A
   R0012A
   L0012B
   R0012B
   L0012C
   R0012C
   L0012N
   R0012N
   L0013A
   R0013A
   L0013B
   R0013B
   L0013C
   R0013C
   L0013N
   R0013N
   L0014A
   R0014A
   L0014B
   R0014B
   L0014C
   R0014C
   L0014N
   R0014N
   L0015A
   R0015A
   L0015B
   R0015B
   L0015C
   R0015C
   L0015N
   R0015N
   L0016A
   R0016A
   L0016B
   R0016B
   L0016C
   R0016C
   L0016N
   R0016N
   L0017A
   R0017A
   L0017B
   R0017B
   L0017C
   R0017C
   L0017N
   R0017N
   L0018A
   R0018A
   L0018B
   R0018B
   L0018C
   R0018C
   L0018N
   R0018N
   L0019A
   R0019A
   L0019B
   R0019B
   L0019C
   R0019C
   L0019N
   R0019N
   L0020A
   R0020A
   L0020B
   R0020B
   L0020C
   R0020C
   L0020N
   R0020N
   L0021A
   R0021A
   L0021B
   R0021B
   L0021C
   R0021C
   L0021N
   R0021N
   L0022A
   R0022A
   L0022B
   R0022B
   L0022C
   R0022C
   L0022N
   R0022N
   L0023A
   R0023A
   L0023B
   R0023B
   L0023C
   R0023C
   L0023N
   R0023N
   L0024A
   R0024A
   L0024B
   R0024B
   L0024C
   R0024C
   L0024N
   R0024N
   L0025A
   R0025A
   L0025B
   R0025B
   L0025C
   R0025C
   L0025N
   R0025N
   L0026A
   R0026A
   L0026B
   R0026B
   L0026C
   R0026C
   L0026N
   R0026N
   L0027A
   R0027A
   L0027B
   R0027B
   L0027C
   R0027C
   L0027N
   R0027N
   L0028A
   R0028A
   L0028B
   R0028B
   L0028C
   R0028C
   L0028N
   R0028N
   L0029A
   R0029A
   L0029B
   R0029B
   L0029C
   R0029C
   L0029N
   R0029N
   L0030A
   R0030A
   L0030B
   R0030B
   L0030C
   R0030C
   L0030N
   R0030N
   L0031A
   R0031A
   L0031B
   R0031B
   L0031C
   R0031C
   L0031N
   R0031N
   L0032A
   R0032A
   L0032B
   R0032B
   L0032C
   R0032C
   L0032N
   R0032N
   L0033A
   R0033A
   L0033B
   R0033B
   L0033C
   R0033C
   L0033N
   R0033N
   L0034A
   R0034A
   L0034B
   R0034B
   L0034C
   R0034C
   L0034N
   R0034N
   L0035A
   R0035A
   L0035B
   R0035B
   L0035C
   R0035C
   L0035N
   R0035N
   L0036A
   R0036A
   L0036B
   R0036B
   L0036C
   R0036C
   L0036N
   R0036N
   L0037A
   R0037A
   L0037B
   R0037B
   L0037C
   R0037C
   L0037N
   R0037N
   L0038A
   R0038A
   L0038B
   R0038B
   L0038C
   R0038C
   L0038N
   R0038N
   L0039A
   R0039A
   L0039B
   R0039B
   L0039C
   R0039C
   L0039N
   R0039N
   L0040A
   R0040A
   L0040B
   R0040B
   L0040C
   R0040C
   L0040N
   R0040N
   L0041A
   R0041A
   L0041B
   R0041B
   L0041C
   R0041C
   L0041N
   R0041N
   L0042A
   R0042A
   L0042B
   R0042B
   L0042C
   R0042C
   L0042N
   R0042N
   L0043A
   R0043A
   L0043B
   R0043B
   L0043C
   R0043C
   L0043N
   R0043N
   L0044A
   R0044A
   L0044B
   R0044B
   L0044C
   R0044C
   L0044N
   R0044N
   L0045A
   R0045A
   L0045B
   R0045B
   L0045C
   R0045C
   L0045N
   R0045N
   L0046A
   R0046A
   L0046B
   R0046B
   L0046C
   R0046C
   L0046N
   R0046N
   L0047A
   R0047A
   L0047B
   R0047B
   L0047C
   R0047C
   L0047N
   R0047N
   L0048A
   R0048A
   L0048B
   R0048B
   L0048C
   R0048C
   L0048N
   R0048N
   L0049A
   R0049A
   L0049B
   R0049B
   L0049C
   R0049C
   L0049N
   R0049N
   L0050A
   R0050A
   L0050B
   R0050B
   L0050C
   R0050C
   L0050N
   R0050N
   L0051A
   R0051A
   L0051B
   R0051B
   L0051C
   R0051C
   L0051N
   R0051N
   L0052A
   R0052A
   L0052B
   R0052B
   L0052C
   R0052C
   L0052N
   R0052N
   L0053A
   R0053A
   L0053B
   R0053B
   L0053C
   R0053C
   L0053N
   R0053N
   L0054A
   R0054A
   L0054B
   R0054B
   L0054C
   R0054C
   L0054N
   R0054N
   L0055A
   R0055A
   L0055B
   R0055B
   L0055C
   R0055C
   L0055N
   R0055N
   L0056A
   R0056A
   L0056B
   R0056B
   L0056C
   R0056C
   L0056N
   R0056N
   L0057A
   R0057A
   L0057B
   R0057B
   L0057C
   R0057C
   L0057N
   R0057N
   L0058A
   R0058A
   L0058B
   R0058B
   L0058C
   R0058C
   L0058N
   R0058N
   L0059A
   R0059A
   L0059B
   R0059B
   L0059C
   R0059C
   L0059N
   R0059N
   L0060A
   R0060A
   L0060B
   R0060B
   L0060C
   R0060C
   L0060N
   R0060N
   L0061A
   R0061A
   L0061B
   R0061B
   L0061C
   R0061C
   L0061N
   R0061N
   L0062A
   R0062A
   L0062B
   R0062B
   L0062C
   R0062C
   L0062N
   R0062N
   L0063A
   R0063A
   L0063B
   R0063B
   L0063C
   R0063C
   L0063N
   R0063N
   L0064A
   R0064A
   L0064B
   R0064B
   L0064C
   R0064C
   L0064N
   R0064N
   L0065A
   R0065A
   L0065B
   R0065B
   L0065C
   R0065C
   L0065N
   R0065N
   L0066A
   R0066A
   L0066B
   R0066B
   L0066C
   R0066C
   L0066N
   R0066N
   L0067A
   R0067A
   L0067B
   R0067B
   L0067C
   R0067C
   L0067N
   R0067N
   L0068A
   R0068A
   L0068B
   R0068B
   L0068C
   R0068C
   L0068N
   R0068N
   L0069A
   R0069A
   L0069B
   R0069B
   L0069C
   R0069C
   L0069N
   R0069N
   L0070A
   R0070A
   L0070B
   R0070B
   L0070C
   R0070C
   L0070N
   R0070N
   L0071A
   R0071A
   L0071B
   R0071B
   L0071C
   R0071C
   L0071N
   R0071N
   L0072A
   R0072A
   L0072B
   R0072B
   L0072C
   R0072C
   L0072N
   R0072N
   L0073A
   R0073A
   L0073B
   R0073B
   L0073C
   R0073C
   L0073N
   R0073N
   L0074A
   R0074A
   L0074B
   R0074B
   L0074C
   R0074C
   L0074N
   R0074N
   L0075A
   R0075A
   L0075B
   R0075B
   L0075C
   R0075C
   L0075N
   R0075N
   L0076A
   R0076A
   L0076B
   R0076B
   L0076C
   R0076C
   L0076N
   R0076N
   L0077A
   R0077A
   L0077B
   R0077B
   L0077C
   R0077C
   L0077N
   R0077N
   L0078A
   R0078A
   L0078B
   R0078B
   L0078C
   R0078C
   L0078N
   R0078N
   L0079A
   R0079A
   L0079B
   R0079B
   L0079C
   R0079C
   L0079N
   R0079N
   L0080A
   R0080A
   L0080B
   R0080B
   L0080C
   R0080C
   L0080N
   R0080N
   L0081A
   R0081A
   L0081B
   R0081B
   L0081C
   R0081C
   L0081N
   R0081N
   L0082A
   R0082A
   L0082B
   R0082B
   L0082C
   R0082C
   L0082N
   R0082N
   L0083A
   R0083A
   L0083B
   R0083B
   L0083C
   R0083C
   L0083N
   R0083N
   L0084A
   R0084A
   L0084B
   R0084B
   L0084C
   R0084C
   L0084N
   R0084N
   L0085A
   R0085A
   L0085B
   R0085B
   L0085C
   R0085C
   L0085N
   R0085N
   L0086A
   R0086A
   L0086B
   R0086B
   L0086C
   R0086C
   L0086N
   R0086N
   L0087A
   R0087A
   L0087B
   R0087B
   L0087C
   R0087C
   L0087N
   R0087N
   L0088A
   R0088A
   L0088B
   R0088B
   L0088C
   R0088C
   L0088N
   R0088N
   L0089A
   R0089A
   L0089B
   R0089B
   L0089C
   R0089C
   L0089N
   R0089N
   L0090A
   R0090A
   L0090B
   R0090B
   L0090C
   R0090C
   L0090N
   R0090N
   L0091A
   R0091A
   L0091B
   R0091B
   L0091C
   R0091C
   L0091N
   R0091N
   L0092A
   R0092A
   L0092B
   R0092B
   L0092C
   R0092C
   L0092N
   R0092N
   L0093A
   R0093A
   L0093B
   R0093B
   L0093C
   R0093C
   L0093N
   R0093N
   L0094A
   R0094A
   L0094B
   R0094B
   L0094C
   R0094C
   L0094N
   R0094N
   L0095A
   R0095A
   L0095B
   R0095B
   L0095C
   R0095C
   L0095N
   R0095N
   L0096A
   R0096A
   L0096B
   R0096B
   L0096C
   R0096C
   L0096N
   R0096N
   L0097A
   R0097A
   L0097B
   R0097B
   L0097C
   R0097C
   L0097N
   R0097N
   L0098A
   R0098A
   L0098B
   R0098B
   L0098C
   R0098C
   L0098N
   R0098N
   L0099A
   R0099A
   L0099B
   R0099B
   L0099C
   R0099C
   L0099N
   R0099N
   L0100A
   R0100A
   L0100B
   R0100B
   L0100C
   R0100C
   L0100N
   R0100N
   L0101A
   R0101A
   L0101B
   R0101B
   L0101C
   R0101C
   L0101N
   R0101N
   L0102A
   R0102A
   L0102B
   R0102B
   L0102C
   R0102C
   L0102N
   R0102N
   L0103A
   R0103A
   L0103B
   R0103B
   L0103C
   R0103C
   L0103N
   R0103N
   L0104A
   R0104A
   L0104B
   R0104B
   L0104C
   R0104C
   L0104N
   R0104N
   L0105A
   R0105A
   L0105B
   R0105B
   L0105C
   R0105C
   L0105N
   R0105N
   L0106A
   R0106A
   L0106B
   R0106B
   L0106C
   R0106C
   L0106N
   R0106N
   L0107A
   R0107A
   L0107B
   R0107B
   L0107C
   R0107C
   L0107N
   R0107N
   L0108A
   R0108A
   L0108B
   R0108B
   L0108C
   R0108C
   L0108N
   R0108N
   L0109A
   R0109A
   L0109B
   R0109B
   L0109C
   R0109C
   L0109N
   R0109N
   L0110A
   R0110A
   L0110B
   R0110B
   L0110C
   R0110C
   L0110N
   R0110N
   L0111A
   R0111A
   L0111B
   R0111B
   L0111C
   R0111C
   L0111N
   R0111N
   L0112A
   R0112A
   L0112B
   R0112B
   L0112C
   R0112C
   L0112N
   R0112N
   L0113A
   R0113A
   L0113B
   R0113B
   L0113C
   R0113C
   L0113N
   R0113N
   L0114A
   R0114A
   L0114B
   R0114B
   L0114C
   R0114C
   L0114N
   R0114N
   L0115A
   R0115A
   L0115B
   R0115B
   L0115C
   R0115C
   L0115N
   R0115N
   L0116A
   R0116A
   L0116B
   R0116B
   L0116C
   R0116C
   L0116N
   R0116N
   L0117A
   R0117A
   L0117B
   R0117B
   L0117C
   R0117C
   L0117N
   R0117N
   L0118A
   R0118A
   L0118B
   R0118B
   L0118C
   R0118C
   L0118N
   R0118N
   L0119A
   R0119A
   L0119B
   R0119B
   L0119C
   R0119C
   L0119N
   R0119N
   L0120A
   R0120A
   L0120B
   R0120B
   L0120C
   R0120C
   L0120N
   R0120N
   L0121A
   R0121A
   L0121B
   R0121B
   L0121C
   R0121C
   L0121N
   R0121N
   L0122A
   R0122A
   L0122B
   R0122B
   L0122C
   R0122C
   L0122N
   R0122N
   L0123A
   R0123A
   L0123B
   R0123B
   L0123C
   R0123C
   L0123N
   R0123N
   L0124A
   R0124A
   L0124B
   R0124B
   L0124C
   R0124C
   L0124N
   R0124N
   L0125A
   R0125A
   L0125B
   R0125B
   L0125C
   R0125C
   L0125N
   R0125N
   L0126A
   R0126A
   L0126B
   R0126B
   L0126C
   R0126C
   L0126N
   R0126N
   L0127A
   R0127A
   L0127B
   R0127B
   L0127C
   R0127C
   L0127N
   R0127N
   L0128A
   R0128A
   L0128B
   R0128B
   L0128C
   R0128C
   L0128N
   R0128N
   L0129A
   R0129A
   L0129B
   R0129B
   L0129C
   R0129C
   L0129N
   R0129N
   L0130A
   R0130A
   L0130B
   R0130B
   L0130C
   R0130C
   L0130N
   R0130N
   L0131A
   R0131A
   L0131B
   R0131B
   L0131C
   R0131C
   L0131N
   R0131N
   L0132A
   R0132A
   L0132B
   R0132B
   L0132C
   R0132C
   L0132N
   R0132N
   L0133A
   R0133A
   L0133B
   R0133B
   L0133C
   R0133C
   L0133N
   R0133N
   L0134A
   R0134A
   L0134B
   R0134B
   L0134C
   R0134C
   L0134N
   R0134N
   L0135A
   R0135A
   L0135B
   R0135B
   L0135C
   R0135C
   L0135N
   R0135N
   L0136A
   R0136A
   L0136B
   R0136B
   L0136C
   R0136C
   L0136N
   R0136N
   L0137A
   R0137A
   L0137B
   R0137B
   L0137C
   R0137C
   L0137N
   R0137N
   L0138A
   R0138A
   L0138B
   R0138B
   L0138C
   R0138C
   L0138N
   R0138N
   L0139A
   R0139A
   L0139B
   R0139B
   L0139C
   R0139C
   L0139N
   R0139N
   L0140A
   R0140A
   L0140B
   R0140B
   L0140C
   R0140C
   L0140N
   R0140N
   L0141A
   R0141A
   L0141B
   R0141B
   L0141C
   R0141C
   L0141N
   R0141N
   L0142A
   R0142A
   L0142B
   R0142B
   L0142C
   R0142C
   L0142N
   R0142N
   L0143A
   R0143A
   L0143B
   R0143B
   L0143C
   R0143C
   L0143N
   R0143N
   L0144A
   R0144A
   L0144B
   R0144B
   L0144C
   R0144C
   L0144N
   R0144N
   L0145A
   R0145A
   L0145B
   R0145B
   L0145C
   R0145C
   L0145N
   R0145N
   L0146A
   R0146A
   L0146B
   R0146B
   L0146C
   R0146C
   L0146N
   R0146N
   L0147A
   R0147A
   L0147B
   R0147B
   L0147C
   R0147C
   L0147N
   R0147N
   L0148A
   R0148A
   L0148B
   R0148B
   L0148C
   R0148C
   L0148N
   R0148N
   L0149A
   R0149A
   L0149B
   R0149B
   L0149C
   R0149C
   L0149N
   R0149N
   L0150A
   R0150A
   L0150B
   R0150B
   L0150C
   R0150C
   L0150N
   R0150N
   L0151A
   R0151A
   L0151B
   R0151B
   L0151C
   R0151C
   L0151N
   R0151N
   L0152A
   R0152A
   L0152B
   R0152B
   L0152C
   R0152C
   L0152N
   R0152N
   L0153A
   R0153A
   L0153B
   R0153B
   L0153C
   R0153C
   L0153N
   R0153N
   L0154A
   R0154A
   L0154B
   R0154B
   L0154C
   R0154C
   L0154N
   R0154N
   L0155A
   R0155A
   L0155B
   R0155B
   L0155C
   R0155C
   L0155N
   R0155N
   L0156A
   R0156A
   L0156B
   R0156B
   L0156C
   R0156C
   L0156N
   R0156N
   L0157A
   R0157A
   L0157B
   R0157B
   L0157C
   R0157C
   L0157N
   R0157N
   L0158A
   R0158A
   L0158B
   R0158B
   L0158C
   R0158C
   L0158N
   R0158N
   L0159A
   R0159A
   L0159B
   R0159B
   L0159C
   R0159C
   L0159N
   R0159N
   L0160A
   R0160A
   L0160B
   R0160B
   L0160C
   R0160C
   L0160N
   R0160N
   L0161A
   R0161A
   L0161B
   R0161B
   L0161C
   R0161C
   L0161N
   R0161N
   L0162A
   R0162A
   L0162B
   R0162B
   L0162C
   R0162C
   L0162N
   R0162N
   L0163A
   R0163A
   L0163B
   R0163B
   L0163C
   R0163C
   L0163N
   R0163N
   L0164A
   R0164A
   L0164B
   R0164B
   L0164C
   R0164C
   L0164N
   R0164N
   L0165A
   R0165A
   L0165B
   R0165B
   L0165C
   R0165C
   L0165N
   R0165N
   L0166A
   R0166A
   L0166B
   R0166B
   L0166C
   R0166C
   L0166N
   R0166N
   L0167A
   R0167A
   L0167B
   R0167B
   L0167C
   R0167C
   L0167N
   R0167N
   L0168A
   R0168A
   L0168B
   R0168B
   L0168C
   R0168C
   L0168N
   R0168N
   L0169A
   R0169A
   L0169B
   R0169B
   L0169C
   R0169C
   L0169N
   R0169N
   L0170A
   R0170A
   L0170B
   R0170B
   L0170C
   R0170C
   L0170N
   R0170N
   L0171A
   R0171A
   L0171B
   R0171B
   L0171C
   R0171C
   L0171N
   R0171N
   L0172A
   R0172A
   L0172B
   R0172B
   L0172C
   R0172C
   L0172N
   R0172N
   L0173A
   R0173A
   L0173B
   R0173B
   L0173C
   R0173C
   L0173N
   R0173N
   L0174A
   R0174A
   L0174B
   R0174B
   L0174C
   R0174C
   L0174N
   R0174N
   L0175A
   R0175A
   L0175B
   R0175B
   L0175C
   R0175C
   L0175N
   R0175N
   L0176A
   R0176A
   L0176B
   R0176B
   L0176C
   R0176C