BEGIN NEW DATA CASE
C --------------------------------------------------------
C Generated by YALUK DRAW 2.0
C Developed by: Ernesto Pérez G
C eperezg@unal.edu.co
C Universidad Nacional de Colombia
C File Created on: 11/5/2020 10:29:04 PM
C --------------------------------------------------------
C Project Name:LN450
C   
C  dT  >< Tmax >< Xopt >< Copt > 
.5000E-7.4000E-4
  999999       1       1       1       1       0       0       1       0
/MODELS
MODELS
INPUT
M0001A  {v(N0001A)}
M0001B  {v(N0001B)}
M0001C  {v(N0001C)}
M0002A  {v(N0002A)}
M0002B  {v(N0002B)}
M0002C  {v(N0002C)}
M0002N  {v(N0002N)}
M0003A  {v(N0003A)}
M0003B  {v(N0003B)}
M0003C  {v(N0003C)}
M0004A  {v(N0004A)}
M0004B  {v(N0004B)}
M0004C  {v(N0004C)}
M0005A  {v(N0005A)}
M0005B  {v(N0005B)}
M0005C  {v(N0005C)}
M0006A  {v(N0006A)}
M0006B  {v(N0006B)}
M0006C  {v(N0006C)}
M0007A  {v(N0007A)}
M0007B  {v(N0007B)}
M0007C  {v(N0007C)}
M0008A  {v(N0008A)}
M0008B  {v(N0008B)}
M0008C  {v(N0008C)}
M0009A  {v(N0009A)}
M0009B  {v(N0009B)}
M0009C  {v(N0009C)}
M0010A  {v(N0010A)}
M0010B  {v(N0010B)}
M0010C  {v(N0010C)}
M0011A  {v(N0011A)}
M0011B  {v(N0011B)}
M0011C  {v(N0011C)}
M0012A  {v(N0012A)}
M0012B  {v(N0012B)}
M0012C  {v(N0012C)}
M0013A  {v(N0013A)}
M0013B  {v(N0013B)}
M0013C  {v(N0013C)}
M0014A  {v(N0014A)}
M0014B  {v(N0014B)}
M0014C  {v(N0014C)}
M0015A  {v(N0015A)}
M0015B  {v(N0015B)}
M0015C  {v(N0015C)}
M0016A  {v(N0016A)}
M0016B  {v(N0016B)}
M0016C  {v(N0016C)}
M0017A  {v(N0017A)}
M0017B  {v(N0017B)}
M0017C  {v(N0017C)}
M0018A  {v(N0018A)}
M0018B  {v(N0018B)}
M0018C  {v(N0018C)}
M0019A  {v(N0019A)}
M0019B  {v(N0019B)}
M0019C  {v(N0019C)}
M0020A  {v(N0020A)}
M0020B  {v(N0020B)}
M0020C  {v(N0020C)}
M0021A  {v(N0021A)}
M0021B  {v(N0021B)}
M0021C  {v(N0021C)}
M0022A  {v(N0022A)}
M0022B  {v(N0022B)}
M0022C  {v(N0022C)}
M0023A  {v(N0023A)}
M0023B  {v(N0023B)}
M0023C  {v(N0023C)}
M0024A  {v(N0024A)}
M0024B  {v(N0024B)}
M0024C  {v(N0024C)}
M0025A  {v(N0025A)}
M0025B  {v(N0025B)}
M0025C  {v(N0025C)}
M0026A  {v(N0026A)}
M0026B  {v(N0026B)}
M0026C  {v(N0026C)}
M0027A  {v(N0027A)}
M0027B  {v(N0027B)}
M0027C  {v(N0027C)}
M0028A  {v(N0028A)}
M0028B  {v(N0028B)}
M0028C  {v(N0028C)}
M0029A  {v(N0029A)}
M0029B  {v(N0029B)}
M0029C  {v(N0029C)}
M0030A  {v(N0030A)}
M0030B  {v(N0030B)}
M0030C  {v(N0030C)}
M0031A  {v(N0031A)}
M0031B  {v(N0031B)}
M0031C  {v(N0031C)}
M0032A  {v(N0032A)}
M0032B  {v(N0032B)}
M0032C  {v(N0032C)}
M0033A  {v(N0033A)}
M0033B  {v(N0033B)}
M0033C  {v(N0033C)}
M0034A  {v(N0034A)}
M0034B  {v(N0034B)}
M0034C  {v(N0034C)}
M0035A  {v(N0035A)}
M0035B  {v(N0035B)}
M0035C  {v(N0035C)}
M0036A  {v(N0036A)}
M0036B  {v(N0036B)}
M0036C  {v(N0036C)}
M0037A  {v(N0037A)}
M0037B  {v(N0037B)}
M0037C  {v(N0037C)}
M0038A  {v(N0038A)}
M0038B  {v(N0038B)}
M0038C  {v(N0038C)}
M0039A  {v(N0039A)}
M0039B  {v(N0039B)}
M0039C  {v(N0039C)}
M0040A  {v(N0040A)}
M0040B  {v(N0040B)}
M0040C  {v(N0040C)}
M0041A  {v(N0041A)}
M0041B  {v(N0041B)}
M0041C  {v(N0041C)}
M0042A  {v(N0042A)}
M0042B  {v(N0042B)}
M0042C  {v(N0042C)}
M0043A  {v(N0043A)}
M0043B  {v(N0043B)}
M0043C  {v(N0043C)}
M0044A  {v(N0044A)}
M0044B  {v(N0044B)}
M0044C  {v(N0044C)}
M0045A  {v(N0045A)}
M0045B  {v(N0045B)}
M0045C  {v(N0045C)}
M0046A  {v(N0046A)}
M0046B  {v(N0046B)}
M0046C  {v(N0046C)}
M0047A  {v(N0047A)}
M0047B  {v(N0047B)}
M0047C  {v(N0047C)}
M0048A  {v(N0048A)}
M0048B  {v(N0048B)}
M0048C  {v(N0048C)}
M0049A  {v(N0049A)}
M0049B  {v(N0049B)}
M0049C  {v(N0049C)}
M0050A  {v(N0050A)}
M0050B  {v(N0050B)}
M0050C  {v(N0050C)}
M0051A  {v(N0051A)}
M0051B  {v(N0051B)}
M0051C  {v(N0051C)}
M0052A  {v(N0052A)}
M0052B  {v(N0052B)}
M0052C  {v(N0052C)}
M0053A  {v(N0053A)}
M0053B  {v(N0053B)}
M0053C  {v(N0053C)}
M0054A  {v(N0054A)}
M0054B  {v(N0054B)}
M0054C  {v(N0054C)}
M0055A  {v(N0055A)}
M0055B  {v(N0055B)}
M0055C  {v(N0055C)}
M0056A  {v(N0056A)}
M0056B  {v(N0056B)}
M0056C  {v(N0056C)}
M0057A  {v(N0057A)}
M0057B  {v(N0057B)}
M0057C  {v(N0057C)}
M0058A  {v(N0058A)}
M0058B  {v(N0058B)}
M0058C  {v(N0058C)}
M0059A  {v(N0059A)}
M0059B  {v(N0059B)}
M0059C  {v(N0059C)}
M0060A  {v(N0060A)}
M0060B  {v(N0060B)}
M0060C  {v(N0060C)}
M0061A  {v(N0061A)}
M0061B  {v(N0061B)}
M0061C  {v(N0061C)}
M0062A  {v(N0062A)}
M0062B  {v(N0062B)}
M0062C  {v(N0062C)}
M0063A  {v(N0063A)}
M0063B  {v(N0063B)}
M0063C  {v(N0063C)}
M0064A  {v(N0064A)}
M0064B  {v(N0064B)}
M0064C  {v(N0064C)}
M0065A  {v(N0065A)}
M0065B  {v(N0065B)}
M0065C  {v(N0065C)}
M0066A  {v(N0066A)}
M0066B  {v(N0066B)}
M0066C  {v(N0066C)}
M0067A  {v(N0067A)}
M0067B  {v(N0067B)}
M0067C  {v(N0067C)}
M0068A  {v(N0068A)}
M0068B  {v(N0068B)}
M0068C  {v(N0068C)}
M0069A  {v(N0069A)}
M0069B  {v(N0069B)}
M0069C  {v(N0069C)}
M0070A  {v(N0070A)}
M0070B  {v(N0070B)}
M0070C  {v(N0070C)}
M0071A  {v(N0071A)}
M0071B  {v(N0071B)}
M0071C  {v(N0071C)}
M0072A  {v(N0072A)}
M0072B  {v(N0072B)}
M0072C  {v(N0072C)}
M0073A  {v(N0073A)}
M0073B  {v(N0073B)}
M0073C  {v(N0073C)}
M0074A  {v(N0074A)}
M0074B  {v(N0074B)}
M0074C  {v(N0074C)}
M0075A  {v(N0075A)}
M0075B  {v(N0075B)}
M0075C  {v(N0075C)}
M0076A  {v(N0076A)}
M0076B  {v(N0076B)}
M0076C  {v(N0076C)}
M0077A  {v(N0077A)}
M0077B  {v(N0077B)}
M0077C  {v(N0077C)}
M0078A  {v(N0078A)}
M0078B  {v(N0078B)}
M0078C  {v(N0078C)}
M0079A  {v(N0079A)}
M0079B  {v(N0079B)}
M0079C  {v(N0079C)}
M0080A  {v(N0080A)}
M0080B  {v(N0080B)}
M0080C  {v(N0080C)}
M0081A  {v(N0081A)}
M0081B  {v(N0081B)}
M0081C  {v(N0081C)}
M0082A  {v(N0082A)}
M0082B  {v(N0082B)}
M0082C  {v(N0082C)}
M0083A  {v(N0083A)}
M0083B  {v(N0083B)}
M0083C  {v(N0083C)}
M0084A  {v(N0084A)}
M0084B  {v(N0084B)}
M0084C  {v(N0084C)}
M0085A  {v(N0085A)}
M0085B  {v(N0085B)}
M0085C  {v(N0085C)}
M0086A  {v(N0086A)}
M0086B  {v(N0086B)}
M0086C  {v(N0086C)}
M0087A  {v(N0087A)}
M0087B  {v(N0087B)}
M0087C  {v(N0087C)}
M0088A  {v(N0088A)}
M0088B  {v(N0088B)}
M0088C  {v(N0088C)}
M0089A  {v(N0089A)}
M0089B  {v(N0089B)}
M0089C  {v(N0089C)}
M0090A  {v(N0090A)}
M0090B  {v(N0090B)}
M0090C  {v(N0090C)}
M0091A  {v(N0091A)}
M0091B  {v(N0091B)}
M0091C  {v(N0091C)}
M0092A  {v(N0092A)}
M0092B  {v(N0092B)}
M0092C  {v(N0092C)}
M0093A  {v(N0093A)}
M0093B  {v(N0093B)}
M0093C  {v(N0093C)}
M0094A  {v(N0094A)}
M0094B  {v(N0094B)}
M0094C  {v(N0094C)}
M0095A  {v(N0095A)}
M0095B  {v(N0095B)}
M0095C  {v(N0095C)}
M0096A  {v(N0096A)}
M0096B  {v(N0096B)}
M0096C  {v(N0096C)}
M0097A  {v(N0097A)}
M0097B  {v(N0097B)}
M0097C  {v(N0097C)}
M0098A  {v(N0098A)}
M0098B  {v(N0098B)}
M0098C  {v(N0098C)}
M0099A  {v(N0099A)}
M0099B  {v(N0099B)}
M0099C  {v(N0099C)}
M0100A  {v(N0100A)}
M0100B  {v(N0100B)}
M0100C  {v(N0100C)}
M0101A  {v(N0101A)}
M0101B  {v(N0101B)}
M0101C  {v(N0101C)}
M0102A  {v(N0102A)}
M0102B  {v(N0102B)}
M0102C  {v(N0102C)}
M0103A  {v(N0103A)}
M0103B  {v(N0103B)}
M0103C  {v(N0103C)}
M0104A  {v(N0104A)}
M0104B  {v(N0104B)}
M0104C  {v(N0104C)}
M0105A  {v(N0105A)}
M0105B  {v(N0105B)}
M0105C  {v(N0105C)}
M0106A  {v(N0106A)}
M0106B  {v(N0106B)}
M0106C  {v(N0106C)}
M0107A  {v(N0107A)}
M0107B  {v(N0107B)}
M0107C  {v(N0107C)}
M0108A  {v(N0108A)}
M0108B  {v(N0108B)}
M0108C  {v(N0108C)}
M0109A  {v(N0109A)}
M0109B  {v(N0109B)}
M0109C  {v(N0109C)}
M0110A  {v(N0110A)}
M0110B  {v(N0110B)}
M0110C  {v(N0110C)}
M0111A  {v(N0111A)}
M0111B  {v(N0111B)}
M0111C  {v(N0111C)}
M0112A  {v(N0112A)}
M0112B  {v(N0112B)}
M0112C  {v(N0112C)}
M0113A  {v(N0113A)}
M0113B  {v(N0113B)}
M0113C  {v(N0113C)}
M0114A  {v(N0114A)}
M0114B  {v(N0114B)}
M0114C  {v(N0114C)}
M0115A  {v(N0115A)}
M0115B  {v(N0115B)}
M0115C  {v(N0115C)}
M0116A  {v(N0116A)}
M0116B  {v(N0116B)}
M0116C  {v(N0116C)}
M0117A  {v(N0117A)}
M0117B  {v(N0117B)}
M0117C  {v(N0117C)}
M0118A  {v(N0118A)}
M0118B  {v(N0118B)}
M0118C  {v(N0118C)}
M0119A  {v(N0119A)}
M0119B  {v(N0119B)}
M0119C  {v(N0119C)}
M0120A  {v(N0120A)}
M0120B  {v(N0120B)}
M0120C  {v(N0120C)}
M0121A  {v(N0121A)}
M0121B  {v(N0121B)}
M0121C  {v(N0121C)}
M0122A  {v(N0122A)}
M0122B  {v(N0122B)}
M0122C  {v(N0122C)}
M0123A  {v(N0123A)}
M0123B  {v(N0123B)}
M0123C  {v(N0123C)}
M0124A  {v(N0124A)}
M0124B  {v(N0124B)}
M0124C  {v(N0124C)}
M0125A  {v(N0125A)}
M0125B  {v(N0125B)}
M0125C  {v(N0125C)}
M0126A  {v(N0126A)}
M0126B  {v(N0126B)}
M0126C  {v(N0126C)}
M0127A  {v(N0127A)}
M0127B  {v(N0127B)}
M0127C  {v(N0127C)}
M0128A  {v(N0128A)}
M0128B  {v(N0128B)}
M0128C  {v(N0128C)}
M0129A  {v(N0129A)}
M0129B  {v(N0129B)}
M0129C  {v(N0129C)}
M0130A  {v(N0130A)}
M0130B  {v(N0130B)}
M0130C  {v(N0130C)}
M0131A  {v(N0131A)}
M0131B  {v(N0131B)}
M0131C  {v(N0131C)}
M0132A  {v(N0132A)}
M0132B  {v(N0132B)}
M0132C  {v(N0132C)}
M0133A  {v(N0133A)}
M0133B  {v(N0133B)}
M0133C  {v(N0133C)}
M0134A  {v(N0134A)}
M0134B  {v(N0134B)}
M0134C  {v(N0134C)}
M0135A  {v(N0135A)}
M0135B  {v(N0135B)}
M0135C  {v(N0135C)}
M0136A  {v(N0136A)}
M0136B  {v(N0136B)}
M0136C  {v(N0136C)}
M0137A  {v(N0137A)}
M0137B  {v(N0137B)}
M0137C  {v(N0137C)}
M0138A  {v(N0138A)}
M0138B  {v(N0138B)}
M0138C  {v(N0138C)}
M0139A  {v(N0139A)}
M0139B  {v(N0139B)}
M0139C  {v(N0139C)}
M0140A  {v(N0140A)}
M0140B  {v(N0140B)}
M0140C  {v(N0140C)}
M0141A  {v(N0141A)}
M0141B  {v(N0141B)}
M0141C  {v(N0141C)}
M0142A  {v(N0142A)}
M0142B  {v(N0142B)}
M0142C  {v(N0142C)}
M0143A  {v(N0143A)}
M0143B  {v(N0143B)}
M0143C  {v(N0143C)}
M0144A  {v(N0144A)}
M0144B  {v(N0144B)}
M0144C  {v(N0144C)}
M0145A  {v(N0145A)}
M0145B  {v(N0145B)}
M0145C  {v(N0145C)}
M0146A  {v(N0146A)}
M0146B  {v(N0146B)}
M0146C  {v(N0146C)}
M0147A  {v(N0147A)}
M0147B  {v(N0147B)}
M0147C  {v(N0147C)}
M0148A  {v(N0148A)}
M0148B  {v(N0148B)}
M0148C  {v(N0148C)}
M0149A  {v(N0149A)}
M0149B  {v(N0149B)}
M0149C  {v(N0149C)}
M0150A  {v(N0150A)}
M0150B  {v(N0150B)}
M0150C  {v(N0150C)}
M0151A  {v(N0151A)}
M0151B  {v(N0151B)}
M0151C  {v(N0151C)}
M0152A  {v(N0152A)}
M0152B  {v(N0152B)}
M0152C  {v(N0152C)}
M0153A  {v(N0153A)}
M0153B  {v(N0153B)}
M0153C  {v(N0153C)}
M0154A  {v(N0154A)}
M0154B  {v(N0154B)}
M0154C  {v(N0154C)}
M0155A  {v(N0155A)}
M0155B  {v(N0155B)}
M0155C  {v(N0155C)}
M0156A  {v(N0156A)}
M0156B  {v(N0156B)}
M0156C  {v(N0156C)}
M0157A  {v(N0157A)}
M0157B  {v(N0157B)}
M0157C  {v(N0157C)}
M0158A  {v(N0158A)}
M0158B  {v(N0158B)}
M0158C  {v(N0158C)}
M0159A  {v(N0159A)}
M0159B  {v(N0159B)}
M0159C  {v(N0159C)}
M0160A  {v(N0160A)}
M0160B  {v(N0160B)}
M0160C  {v(N0160C)}
M0161A  {v(N0161A)}
M0161B  {v(N0161B)}
M0161C  {v(N0161C)}
M0162A  {v(N0162A)}
M0162B  {v(N0162B)}
M0162C  {v(N0162C)}
M0163A  {v(N0163A)}
M0163B  {v(N0163B)}
M0163C  {v(N0163C)}
M0164A  {v(N0164A)}
M0164B  {v(N0164B)}
M0164C  {v(N0164C)}
M0165A  {v(N0165A)}
M0165B  {v(N0165B)}
M0165C  {v(N0165C)}
M0166A  {v(N0166A)}
M0166B  {v(N0166B)}
M0166C  {v(N0166C)}
M0167A  {v(N0167A)}
M0167B  {v(N0167B)}
M0167C  {v(N0167C)}
M0168A  {v(N0168A)}
M0168B  {v(N0168B)}
M0168C  {v(N0168C)}
M0169A  {v(N0169A)}
M0169B  {v(N0169B)}
M0169C  {v(N0169C)}
M0170A  {v(N0170A)}
M0170B  {v(N0170B)}
M0170C  {v(N0170C)}
M0171A  {v(N0171A)}
M0171B  {v(N0171B)}
M0171C  {v(N0171C)}
M0172A  {v(N0172A)}
M0172B  {v(N0172B)}
M0172C  {v(N0172C)}
M0173A  {v(N0173A)}
M0173B  {v(N0173B)}
M0173C  {v(N0173C)}
M0174A  {v(N0174A)}
M0174B  {v(N0174B)}
M0174C  {v(N0174C)}
M0175A  {v(N0175A)}
M0175B  {v(N0175B)}
M0175C  {v(N0175C)}
M0176A  {v(N0176A)}
M0176B  {v(N0176B)}
M0176C  {v(N0176C)}
M0177A  {v(N0177A)}
M0177B  {v(N0177B)}
M0177C  {v(N0177C)}
M0178A  {v(N0178A)}
M0178B  {v(N0178B)}
M0178C  {v(N0178C)}
M0179A  {v(N0179A)}
M0179B  {v(N0179B)}
M0179C  {v(N0179C)}
M0180A  {v(N0180A)}
M0180B  {v(N0180B)}
M0180C  {v(N0180C)}
M0181A  {v(N0181A)}
M0181B  {v(N0181B)}
M0181C  {v(N0181C)}
M0182A  {v(N0182A)}
M0182B  {v(N0182B)}
M0182C  {v(N0182C)}
M0183A  {v(N0183A)}
M0183B  {v(N0183B)}
M0183C  {v(N0183C)}
M0184A  {v(N0184A)}
M0184B  {v(N0184B)}
M0184C  {v(N0184C)}
M0185A  {v(N0185A)}
M0185B  {v(N0185B)}
M0185C  {v(N0185C)}
M0186A  {v(N0186A)}
M0186B  {v(N0186B)}
M0186C  {v(N0186C)}
M0187A  {v(N0187A)}
M0187B  {v(N0187B)}
M0187C  {v(N0187C)}
M0188A  {v(N0188A)}
M0188B  {v(N0188B)}
M0188C  {v(N0188C)}
M0189A  {v(N0189A)}
M0189B  {v(N0189B)}
M0189C  {v(N0189C)}
M0190A  {v(N0190A)}
M0190B  {v(N0190B)}
M0190C  {v(N0190C)}
M0191A  {v(N0191A)}
M0191B  {v(N0191B)}
M0191C  {v(N0191C)}
M0192A  {v(N0192A)}
M0192B  {v(N0192B)}
M0192C  {v(N0192C)}
M0193A  {v(N0193A)}
M0193B  {v(N0193B)}
M0193C  {v(N0193C)}
M0194A  {v(N0194A)}
M0194B  {v(N0194B)}
M0194C  {v(N0194C)}
M0195A  {v(N0195A)}
M0195B  {v(N0195B)}
M0195C  {v(N0195C)}
M0196A  {v(N0196A)}
M0196B  {v(N0196B)}
M0196C  {v(N0196C)}
M0197A  {v(N0197A)}
M0197B  {v(N0197B)}
M0197C  {v(N0197C)}
M0198A  {v(N0198A)}
M0198B  {v(N0198B)}
M0198C  {v(N0198C)}
M0199A  {v(N0199A)}
M0199B  {v(N0199B)}
M0199C  {v(N0199C)}
M0200A  {v(N0200A)}
M0200B  {v(N0200B)}
M0200C  {v(N0200C)}
M0201A  {v(N0201A)}
M0201B  {v(N0201B)}
M0201C  {v(N0201C)}
M0202A  {v(N0202A)}
M0202B  {v(N0202B)}
M0202C  {v(N0202C)}
M0203A  {v(N0203A)}
M0203B  {v(N0203B)}
M0203C  {v(N0203C)}
M0204A  {v(N0204A)}
M0204B  {v(N0204B)}
M0204C  {v(N0204C)}
M0205A  {v(N0205A)}
M0205B  {v(N0205B)}
M0205C  {v(N0205C)}
M0206A  {v(N0206A)}
M0206B  {v(N0206B)}
M0206C  {v(N0206C)}
M0207A  {v(N0207A)}
M0207B  {v(N0207B)}
M0207C  {v(N0207C)}
M0208A  {v(N0208A)}
M0208B  {v(N0208B)}
M0208C  {v(N0208C)}
M0209A  {v(N0209A)}
M0209B  {v(N0209B)}
M0209C  {v(N0209C)}
M0210A  {v(N0210A)}
M0210B  {v(N0210B)}
M0210C  {v(N0210C)}
M0211A  {v(N0211A)}
M0211B  {v(N0211B)}
M0211C  {v(N0211C)}
M0212A  {v(N0212A)}
M0212B  {v(N0212B)}
M0212C  {v(N0212C)}
M0213A  {v(N0213A)}
M0213B  {v(N0213B)}
M0213C  {v(N0213C)}
M0214A  {v(N0214A)}
M0214B  {v(N0214B)}
M0214C  {v(N0214C)}
M0215A  {v(N0215A)}
M0215B  {v(N0215B)}
M0215C  {v(N0215C)}
M0216A  {v(N0216A)}
M0216B  {v(N0216B)}
M0216C  {v(N0216C)}
M0217A  {v(N0217A)}
M0217B  {v(N0217B)}
M0217C  {v(N0217C)}
OUTPUT
   L0001A
   R0001A
   L0001B
   R0001B
   L0001C
   R0001C
   L0002A
   R0002A
   L0002B
   R0002B
   L0002C
   R0002C
   L0003A
   R0003A
   L0003B
   R0003B
   L0003C
   R0003C
   L0004A
   R0004A
   L0004B
   R0004B
   L0004C
   R0004C
   L0005A
   R0005A
   L0005B
   R0005B
   L0005C
   R0005C
   L0006A
   R0006A
   L0006B
   R0006B
   L0006C
   R0006C
   L0007A
   R0007A
   L0007B
   R0007B
   L0007C
   R0007C
   L0008A
   R0008A
   L0008B
   R0008B
   L0008C
   R0008C
   L0009A
   R0009A
   L0009B
   R0009B
   L0009C
   R0009C
   L0010A
   R0010A
   L0010B
   R0010B
   L0010C
   R0010C
   L0011A
   R0011A
   L0011B
   R0011B
   L0011C
   R0011C
   L0012A
   R0012A
   L0012B
   R0012B
   L0012C
   R0012C
   L0013A
   R0013A
   L0013B
   R0013B
   L0013C
   R0013C
   L0014A
   R0014A
   L0014B
   R0014B
   L0014C
   R0014C
   L0015A
   R0015A
   L0015B
   R0015B
   L0015C
   R0015C
   L0016A
   R0016A
   L0016B
   R0016B
   L0016C
   R0016C
   L0017A
   R0017A
   L0017B
   R0017B
   L0017C
   R0017C
   L0018A
   R0018A
   L0018B
   R0018B
   L0018C
   R0018C
   L0019A
   R0019A
   L0019B
   R0019B
   L0019C
   R0019C
   L0020A
   R0020A
   L0020B
   R0020B
   L0020C
   R0020C
   L0021A
   R0021A
   L0021B
   R0021B
   L0021C
   R0021C
   L0022A
   R0022A
   L0022B
   R0022B
   L0022C
   R0022C
   L0023A
   R0023A
   L0023B
   R0023B
   L0023C
   R0023C
   L0024A
   R0024A
   L0024B
   R0024B
   L0024C
   R0024C
   L0025A
   R0025A
   L0025B
   R0025B
   L0025C
   R0025C
   L0026A
   R0026A
   L0026B
   R0026B
   L0026C
   R0026C
   L0027A
   R0027A
   L0027B
   R0027B
   L0027C
   R0027C
   L0028A
   R0028A
   L0028B
   R0028B
   L0028C
   R0028C
   L0029A
   R0029A
   L0029B
   R0029B
   L0029C
   R0029C
   L0030A
   R0030A
   L0030B
   R0030B
   L0030C
   R0030C
   L0031A
   R0031A
   L0031B
   R0031B
   L0031C
   R0031C
   L0032A
   R0032A
   L0032B
   R0032B
   L0032C
   R0032C
   L0033A
   R0033A
   L0033B
   R0033B
   L0033C
   R0033C
   L0034A
   R0034A
   L0034B
   R0034B
   L0034C
   R0034C
   L0035A
   R0035A
   L0035B
   R0035B
   L0035C
   R0035C
   L0036A
   R0036A
   L0036B
   R0036B
   L0036C
   R0036C
   L0037A
   R0037A
   L0037B
   R0037B
   L0037C
   R0037C
   L0038A
   R0038A
   L0038B
   R0038B
   L0038C
   R0038C
   L0039A
   R0039A
   L0039B
   R0039B
   L0039C
   R0039C
   L0040A
   R0040A
   L0040B
   R0040B
   L0040C
   R0040C
   L0041A
   R0041A
   L0041B
   R0041B
   L0041C
   R0041C
   L0042A
   R0042A
   L0042B
   R0042B
   L0042C
   R0042C
   L0043A
   R0043A
   L0043B
   R0043B
   L0043C
   R0043C
   L0044A
   R0044A
   L0044B
   R0044B
   L0044C
   R0044C
   L0045A
   R0045A
   L0045B
   R0045B
   L0045C
   R0045C
   L0046A
   R0046A
   L0046B
   R0046B
   L0046C
   R0046C
   L0047A
   R0047A
   L0047B
   R0047B
   L0047C
   R0047C
   L0048A
   R0048A
   L0048B
   R0048B
   L0048C
   R0048C
   L0049A
   R0049A
   L0049B
   R0049B
   L0049C
   R0049C
   L0050A
   R0050A
   L0050B
   R0050B
   L0050C
   R0050C
   L0051A
   R0051A
   L0051B
   R0051B
   L0051C
   R0051C
   L0052A
   R0052A
   L0052B
   R0052B
   L0052C
   R0052C
   L0053A
   R0053A
   L0053B
   R0053B
   L0053C
   R0053C
   L0054A
   R0054A
   L0054B
   R0054B
   L0054C
   R0054C
   L0055A
   R0055A
   L0055B
   R0055B
   L0055C
   R0055C
   L0056A
   R0056A
   L0056B
   R0056B
   L0056C
   R0056C
   L0057A
   R0057A
   L0057B
   R0057B
   L0057C
   R0057C
   L0058A
   R0058A
   L0058B
   R0058B
   L0058C
   R0058C
   L0059A
   R0059A
   L0059B
   R0059B
   L0059C
   R0059C
   L0060A
   R0060A
   L0060B
   R0060B
   L0060C
   R0060C
   L0061A
   R0061A
   L0061B
   R0061B
   L0061C
   R0061C
   L0062A
   R0062A
   L0062B
   R0062B
   L0062C
   R0062C
   L0063A
   R0063A
   L0063B
   R0063B
   L0063C
   R0063C
   L0064A
   R0064A
   L0064B
   R0064B
   L0064C
   R0064C
   L0065A
   R0065A
   L0065B
   R0065B
   L0065C
   R0065C
   L0066A
   R0066A
   L0066B
   R0066B
   L0066C
   R0066C
   L0067A
   R0067A
   L0067B
   R0067B
   L0067C
   R0067C
   L0068A
   R0068A
   L0068B
   R0068B
   L0068C
   R0068C
   L0069A
   R0069A
   L0069B
   R0069B
   L0069C
   R0069C
   L0070A
   R0070A
   L0070B
   R0070B
   L0070C
   R0070C
   L0071A
   R0071A
   L0071B
   R0071B
   L0071C
   R0071C
   L0072A
   R0072A
   L0072B
   R0072B
   L0072C
   R0072C
   L0073A
   R0073A
   L0073B
   R0073B
   L0073C
   R0073C
   L0074A
   R0074A
   L0074B
   R0074B
   L0074C
   R0074C
   L0075A
   R0075A
   L0075B
   R0075B
   L0075C
   R0075C
   L0076A
   R0076A
   L0076B
   R0076B
   L0076C
   R0076C
   L0077A
   R0077A
   L0077B
   R0077B
   L0077C
   R0077C
   L0078A
   R0078A
   L0078B
   R0078B
   L0078C
   R0078C
   L0079A
   R0079A
   L0079B
   R0079B
   L0079C
   R0079C
   L0080A
   R0080A
   L0080B
   R0080B
   L0080C
   R0080C
   L0081A
   R0081A
   L0081B
   R0081B
   L0081C
   R0081C
   L0082A
   R0082A
   L0082B
   R0082B
   L0082C
   R0082C
   L0083A
   R0083A
   L0083B
   R0083B
   L0083C
   R0083C
   L0084A
   R0084A
   L0084B
   R0084B
   L0084C
   R0084C
   L0085A
   R0085A
   L0085B
   R0085B
   L0085C
   R0085C
   L0086A
   R0086A
   L0086B
   R0086B
   L0086C
   R0086C
   L0087A
   R0087A
   L0087B
   R0087B
   L0087C
   R0087C
   L0088A
   R0088A
   L0088B
   R0088B
   L0088C
   R0088C
   L0089A
   R0089A
   L0089B
   R0089B
   L0089C
   R0089C
   L0090A
   R0090A
   L0090B
   R0090B
   L0090C
   R0090C
   L0091A
   R0091A
   L0091B
   R0091B
   L0091C
   R0091C
   L0092A
   R0092A
   L0092B
   R0092B
   L0092C
   R0092C
   L0093A
   R0093A
   L0093B
   R0093B
   L0093C
   R0093C
   L0094A
   R0094A
   L0094B
   R0094B
   L0094C
   R0094C
   L0095A
   R0095A
   L0095B
   R0095B
   L0095C
   R0095C
   L0096A
   R0096A
   L0096B
   R0096B
   L0096C
   R0096C
   L0097A
   R0097A
   L0097B
   R0097B
   L0097C
   R0097C
   L0098A
   R0098A
   L0098B
   R0098B
   L0098C
   R0098C
   L0099A
   R0099A
   L0099B
   R0099B
   L0099C
   R0099C
   L0100A
   R0100A
   L0100B
   R0100B
   L0100C
   R0100C
   L0101A
   R0101A
   L0101B
   R0101B
   L0101C
   R0101C
   L0102A
   R0102A
   L0102B
   R0102B
   L0102C
   R0102C
   L0103A
   R0103A
   L0103B
   R0103B
   L0103C
   R0103C
   L0104A
   R0104A
   L0104B
   R0104B
   L0104C
   R0104C
   L0105A
   R0105A
   L0105B
   R0105B
   L0105C
   R0105C
   L0106A
   R0106A
   L0106B
   R0106B
   L0106C
   R0106C
   L0107A
   R0107A
   L0107B
   R0107B
   L0107C
   R0107C
   L0108A
   R0108A
   L0108B
   R0108B
   L0108C
   R0108C
   L0109A
   R0109A
   L0109B
   R0109B
   L0109C
   R0109C
   L0110A
   R0110A
   L0110B
   R0110B
   L0110C
   R0110C
   L0111A
   R0111A
   L0111B
   R0111B
   L0111C
   R0111C
   L0112A
   R0112A
   L0112B
   R0112B
   L0112C
   R0112C
   L0113A
   R0113A
   L0113B
   R0113B
   L0113C
   R0113C
   L0114A
   R0114A
   L0114B
   R0114B
   L0114C
   R0114C
   L0115A
   R0115A
   L0115B
   R0115B
   L0115C
   R0115C
   L0116A
   R0116A
   L0116B
   R0116B
   L0116C
   R0116C
   L0117A
   R0117A
   L0117B
   R0117B
   L0117C
   R0117C
   L0118A
   R0118A
   L0118B
   R0118B
   L0118C
   R0118C
   L0119A
   R0119A
   L0119B
   R0119B
   L0119C
   R0119C
   L0120A
   R0120A
   L0120B
   R0120B
   L0120C
   R0120C
   L0121A
   R0121A
   L0121B
   R0121B
   L0121C
   R0121C
   L0122A
   R0122A
   L0122B
   R0122B
   L0122C
   R0122C
   L0123A
   R0123A
   L0123B
   R0123B
   L0123C
   R0123C
   L0124A
   R0124A
   L0124B
   R0124B
   L0124C
   R0124C
   L0125A
   R0125A
   L0125B
   R0125B
   L0125C
   R0125C
   L0126A
   R0126A
   L0126B
   R0126B
   L0126C
   R0126C
   L0127A
   R0127A
   L0127B
   R0127B
   L0127C
   R0127C
   L0128A
   R0128A
   L0128B
   R0128B
   L0128C
   R0128C
   L0129A
   R0129A
   L0129B
   R0129B
   L0129C
   R0129C
   L0130A
   R0130A
   L0130B
   R0130B
   L0130C
   R0130C
   L0131A
   R0131A
   L0131B
   R0131B
   L0131C
   R0131C
   L0132A
   R0132A
   L0132B
   R0132B
   L0132C
   R0132C
   L0133A
   R0133A
   L0133B
   R0133B
   L0133C
   R0133C
   L0134A
   R0134A
   L0134B
   R0134B
   L0134C
   R0134C
   L0135A
   R0135A
   L0135B
   R0135B
   L0135C
   R0135C
   L0136A
   R0136A
   L0136B
   R0136B
   L0136C
   R0136C
   L0137A
   R0137A
   L0137B
   R0137B
   L0137C
   R0137C
   L0138A
   R0138A
   L0138B
   R0138B
   L0138C
   R0138C
   L0139A
   R0139A
   L0139B
   R0139B
   L0139C
   R0139C
   L0140A
   R0140A
   L0140B
   R0140B
   L0140C
   R0140C
   L0141A
   R0141A
   L0141B
   R0141B
   L0141C
   R0141C
   L0142A
   R0142A
   L0142B
   R0142B
   L0142C
   R0142C
   L0143A
   R0143A
   L0143B
   R0143B
   L0143C
   R0143C
   L0144A
   R0144A
   L0144B
   R0144B
   L0144C
   R0144C
   L0145A
   R0145A
   L0145B
   R0145B
   L0145C
   R0145C
   L0146A
   R0146A
   L0146B
   R0146B
   L0146C
   R0146C
   L0147A
   R0147A
   L0147B
   R0147B
   L0147C
   R0147C
   L0148A
   R0148A
   L0148B
   R0148B
   L0148C
   R0148C
   L0149A
   R0149A
   L0149B
   R0149B
   L0149C
   R0149C
   L0150A
   R0150A
   L0150B
   R0150B
   L0150C
   R0150C
   L0151A
   R0151A
   L0151B
   R0151B
   L0151C
   R0151C
   L0152A
   R0152A
   L0152B
   R0152B
   L0152C
   R0152C
   L0153A
   R0153A
   L0153B
   R0153B
   L0153C
   R0153C
   L0154A
   R0154A
   L0154B
   R0154B
   L0154C
   R0154C
   L0155A
   R0155A
   L0155B
   R0155B
   L0155C
   R0155C
   L0156A
   R0156A
   L0156B
   R0156B
   L0156C
   R0156C
   L0157A
   R0157A
   L0157B
   R0157B
   L0157C
   R0157C
   L0158A
   R0158A
   L0158B
   R0158B
   L0158C
   R0158C
   L0159A
   R0159A
   L0159B
   R0159B
   L0159C
   R0159C
   L0160A
   R0160A
   L0160B
   R0160B
   L0160C
   R0160C
   L0161A
   R0161A
   L0161B
   R0161B
   L0161C
   R0161C
   L0162A
   R0162A
   L0162B
   R0162B
   L0162C
   R0162C
   L0163A
   R0163A
   L0163B
   R0163B
   L0163C
   R0163C
   L0164A
   R0164A
   L0164B
   R0164B
   L0164C
   R0164C
   L0165A
   R0165A
   L0165B
   R0165B
   L0165C
   R0165C
   L0166A
   R0166A
   L0166B
   R0166B
   L0166C
   R0166C
   L0167A
   R0167A
   L0167B
   R0167B
   L0167C
   R0167C
   L0168A
   R0168A
   L0168B
   R0168B
   L0168C
   R0168C
   L0169A
   R0169A
   L0169B
   R0169B
   L0169C
   R0169C
   L0170A
   R0170A
   L0170B
   R0170B
   L0170C
   R0170C
   L0171A
   R0171A
   L0171B
   R0171B
   L0171C
   R0171C
   L0172A
   R0172A
   L0172B
   R0172B
   L0172C
   R0172C
   L0173A
   R0173A
   L0173B
   R0173B
   L0173C
   R0173C
   L0174A
   R0174A
   L0174B
   R0174B
   L0174C
   R0174C
   L0175A
   R0175A
   L0175B
   R0175B
   L0175C
   R0175C
   L0176A
   R0176A
   L0176B
   R0176B
   L0176C
   R0176C
   L0177A
   R0177A
   L0177B
   R0177B
   L0177C
   R0177C
   L0178A
   R0178A
   L0178B
   R0178B
   L0178C
   R0178C
   L0179A
   R0179A
   L0179B
   R0179B
   L0179C
   R0179C
   L0180A
   R0180A
   L0180B
   R0180B
   L0180C
   R0180C
   L0181A
   R0181A
   L0181B
   R0181B
   L0181C
   R0181C
   L0182A
   R0182A
   L0182B
   R0182B
   L0182C
   R0182C
   L0183A
   R0183A
   L0183B
   R0183B
   L0183C
   R0183C
   L0184A
   R0184A
   L0184B
   R0184B
   L0184C
   R0184C
   L0185A
   R0185A
   L0185B
   R0185B
   L0185C
   R0185C
   L0186A
   R0186A
   L0186B
   R0186B
   L0186C
   R0186C
   L0187A
   R0187A
   L0187B
   R0187B
   L0187C
   R0187C
   L0188A
   R0188A
   L0188B
   R0188B
   L0188C
   R0188C
   L0189A
   R0189A
   L0189B
   R0189B
   L0189C
   R0189C
   L0190A
   R0190A
   L0190B
   R0190B
   L0190C
   R0190C
   L0191A
   R0191A
   L0191B
   R0191B
   L0191C
   R0191C
   L0192A
   R0192A
   L0192B
   R0192B
   L0192C
   R0192C
   L0193A
   R0193A
   L0193B
   R0193B
   L0193C
   R0193C
   L0194A
   R0194A
   L0194B
   R0194B
   L0194C
   R0194C
   L0195A
   R0195A
   L0195B
   R0195B
   L0195C
   R0195C
   L0196A
   R0196A
   L0196B
   R0196B
   L0196C
   R0196C
   L0197A
   R0197A
   L0197B
   R0197B
   L0197C
   R0197C
   L0198A
   R0198A
   L0198B
   R0198B
   L0198C
   R0198C
   L0199A
   R0199A
   L0199B
   R0199B
   L0199C
   R0199C
   L0200A
   R0200A
   L0200B
   R0200B
   L0200C
   R0200C
   L0201A
   R0201A
   L0201B
   R0201B
   L0201C
   R0201C
   L0202A
   R0202A
   L0202B
   R0202B
   L0202C
   R0202C
   L0203A
   R0203A
   L0203B
   R0203B
   L0203C
   R0203C
   L0204A
   R0204A
   L0204B
   R0204B
   L0204C
   R0204C
   L0205A
   R0205A
   L0205B
   R0205B
   L0205C
   R0205C
   L0206A
   R0206A
   L0206B
   R0206B
   L0206C
   R0206C
   L0207A
   R0207A
   L0207B
   R0207B
   L0207C
   R0207C
   L0208A
   R0208A
   L0208B
   R0208B
   L0208C
   R0208C
   L0209A
   R0209A
   L0209B
   R0209B
   L0209C
   R0209C
   L0210A
   R0210A
   L0210B
   R0210B
   L0210C
   R0210C
   L0211A
   R0211A
   L0211B
   R0211B
   L0211C
   R0211C
   L0212A
   R0212A
   L0212B
   R0212B
   L0212C
   R0212C
   L0213A
   R0213A
   L0213B
   R0213B
   L0213C
   R0213C
   L0214A
   R0214A
   L0214B
   R0214B
   L0214C
   R0214C
   L0215A
   R0215A
   L0215B
   R0215B
   L0215C
   R0215C
   L0216A
   R0216A
   L0216B
   R0216B
   L0216C
   R0216C
MODEL Yaluk1
 -- This model is link with ATP by means of a iluminated line characteristic method
 -- It must have four inputs for one single line (Va,Ia,Vb,Ib)
CONST
cond {VAL:1} --num. phases
INPUT
  Va[1..cond]
  Vb[1..cond]
VAR Vfa[1..cond],Vfb[1..cond]
OUTPUT
   Vfa,Vfb
DATA
	No_Lin
MODEL yaluk_f FOREIGN YALUK_DLL_MODEL {ixdata:4, ixin:3, ixout:2, ixvar:200}
EXEC -- using the DLL subroutine
  USE yaluk_f AS yaluk_f
    DATA xdata[1..4]:=[timestep,stoptime,cond,No_Lin]
    INPUT xin[1..2*cond+1]:=[t,Va[1..cond],Vb[1..cond]]
  --    HISTORY histdef(xvar[1]):=0
    OUTPUT 	Vfa[1..cond]:=xout[1..cond]
		Vfb[1..cond]:=xout[cond+1..2*cond]
  ENDUSE
  ENDEXEC
ENDMODEL
MODEL Yaluk2
 -- This model is link with ATP by means of a iluminated line characteristic method
 -- It must have four inputs for one single line (Va,Ia,Vb,Ib)
CONST
cond {VAL:2} --num. phases
INPUT
  Va[1..cond]
  Vb[1..cond]
VAR Vfa[1..cond],Vfb[1..cond]
OUTPUT
   Vfa,Vfb
DATA
	No_Lin
MODEL yaluk_f FOREIGN YALUK_DLL_MODEL {ixdata:4, ixin:5, ixout:4, ixvar:200}
EXEC -- using the DLL subroutine
  USE yaluk_f AS yaluk_f
    DATA xdata[1..4]:=[timestep,stoptime,cond,No_Lin]
    INPUT xin[1..2*cond+1]:=[t,Va[1..cond],Vb[1..cond]]
  --    HISTORY histdef(xvar[1]):=0
    OUTPUT 	Vfa[1..cond]:=xout[1..cond]
		Vfb[1..cond]:=xout[cond+1..2*cond]
  ENDUSE
  ENDEXEC
ENDMODEL
MODEL Yaluk3
 -- This model is link with ATP by means of a iluminated line characteristic method
 -- It must have four inputs for one single line (Va,Ia,Vb,Ib)
CONST
cond {VAL:3} --num. phases
INPUT
  Va[1..cond]
  Vb[1..cond]
VAR Vfa[1..cond],Vfb[1..cond]
OUTPUT
   Vfa,Vfb
DATA
	No_Lin
MODEL yaluk_f FOREIGN YALUK_DLL_MODEL {ixdata:4, ixin:7, ixout:6, ixvar:200}
EXEC -- using the DLL subroutine
  USE yaluk_f AS yaluk_f
    DATA xdata[1..4]:=[timestep,stoptime,cond,No_Lin]
    INPUT xin[1..2*cond+1]:=[t,Va[1..cond],Vb[1..cond]]
  --    HISTORY histdef(xvar[1]):=0
    OUTPUT 	Vfa[1..cond]:=xout[1..cond]
		Vfb[1..cond]:=xout[cond+1..2*cond]
  ENDUSE
  ENDEXEC
ENDMODEL
MODEL Yaluk4
 -- This model is link with ATP by means of a iluminated line characteristic method
 -- It must have four inputs for one single line (Va,Ia,Vb,Ib)
CONST
cond {VAL:4} --num. phases
INPUT
  Va[1..cond]
  Vb[1..cond]
VAR Vfa[1..cond],Vfb[1..cond]
OUTPUT
   Vfa,Vfb
DATA
	No_Lin
MODEL yaluk_f FOREIGN YALUK_DLL_MODEL {ixdata:4, ixin:9, ixout:8, ixvar:200}
EXEC -- using the DLL subroutine
  USE yaluk_f AS yaluk_f
    DATA xdata[1..4]:=[timestep,stoptime,cond,No_Lin]
    INPUT xin[1..2*cond+1]:=[t,Va[1..cond],Vb[1..cond]]
  --    HISTORY histdef(xvar[1]):=0
    OUTPUT 	Vfa[1..cond]:=xout[1..cond]
		Vfb[1..cond]:=xout[cond+1..2*cond]
  ENDUSE
  ENDEXEC
ENDMODEL
USE Yaluk3 AS Yaluk0003
INPUT
  Va[1]:=M0001A
  Va[2]:=M0001B
  Va[3]:=M0001C
  Vb[1]:=M0002A
  Vb[2]:=M0002B
  Vb[3]:=M0002C
DATA
  No_Lin:=1
OUTPUT
  L0001A:=Vfa[1]
  L0001B:=Vfa[2]
  L0001C:=Vfa[3]
  R0001A:=Vfb[1]
  R0001B:=Vfb[2]
  R0001C:=Vfb[3]
ENDUSE
USE Yaluk3 AS Yaluk0003
INPUT
  Va[1]:=M0002A
  Va[2]:=M0002B
  Va[3]:=M0002C
  Vb[1]:=M0003A
  Vb[2]:=M0003B
  Vb[3]:=M0003C
DATA
  No_Lin:=2
OUTPUT
  L0002A:=Vfa[1]
  L0002B:=Vfa[2]
  L0002C:=Vfa[3]
  R0002A:=Vfb[1]
  R0002B:=Vfb[2]
  R0002C:=Vfb[3]
ENDUSE
USE Yaluk3 AS Yaluk0003
INPUT
  Va[1]:=M0003A
  Va[2]:=M0003B
  Va[3]:=M0003C
  Vb[1]:=M0004A
  Vb[2]:=M0004B
  Vb[3]:=M0004C
DATA
  No_Lin:=3
OUTPUT
  L0003A:=Vfa[1]
  L0003B:=Vfa[2]
  L0003C:=Vfa[3]
  R0003A:=Vfb[1]
  R0003B:=Vfb[2]
  R0003C:=Vfb[3]
ENDUSE
USE Yaluk3 AS Yaluk0003
INPUT
  Va[1]:=M0004A